<NUMBER OF ZONES> 2
<NUMBER OF NODES> 4
<FIRST THRU NODE> 1
<NUMBER OF LINKS> 6
<END OF METADATA>
~  Init node  Term node  Capacity  Length  Free Flow Time  B  Power  Speed limit  Toll  Type  ;
	1	3	4000.0	16.2	0.23	70.0	1.0	0.0	0.0	1.0	;
	1	4	3800.0	12.9	0.18	70.0	1.0	0.0	0.0	1.0	;
	3	2	3200.0	12.5	0.18	70.0	1.0	0.0	0.0	1.0	;
	3	4	3300.0	5.0	0.07	70.0	1.0	0.0	0.0	1.0	;
	4	2	3400.0	16.5	0.24	70.0	1.0	0.0	0.0	1.0	;
	2	1	2000.0	1.0	0.017	70.0	1.0	0.0	0.0	1.0	;
