<NUMBER OF ZONES> 8
<TOTAL OD FLOW> 39531.42544010599
<END OF METADATA>

Origin 1
1	 : 	0;
2	 : 	252.937593777472;
3	 : 	827.6259255054154;
4	 : 	468.69083742415046;
5	 : 	674.0777426067872;
6	 : 	618.7669012659288;
7	 : 	641.1883933696832;
8	 : 	497.16127673850355;


Origin 2
1	 : 	444.24171482210556;
2	 : 	0;
3	 : 	203.20055334798946;
4	 : 	1356.3373057026545;
5	 : 	335.47660562137173;
6	 : 	187.5273928880379;
7	 : 	444.02319716756097;
8	 : 	379.850763234377;


Origin 3
1	 : 	624.2732038298111;
2	 : 	164.87791300107327;
3	 : 	0;
4	 : 	615.9598843085595;
5	 : 	871.8325771930548;
6	 : 	750.4797289957046;
7	 : 	1472.1126868146673;
8	 : 	636.2475880953674;


Origin 4
1	 : 	1089.3135512251622;
2	 : 	1455.7502115217324;
3	 : 	1017.2882604976361;
4	 : 	0;
5	 : 	781.4690655534174;
6	 : 	473.45152384442247;
7	 : 	1045.9737723157234;
8	 : 	1761.9143691429715;


Origin 5
1	 : 	744.150974011462;
2	 : 	271.49586694852513;
3	 : 	2146.0623021788024;
4	 : 	281.18964075543084;
5	 : 	0;
6	 : 	901.7326038016735;
7	 : 	1930.4260936649925;
8	 : 	327.44876489509664;


Origin 6
1	 : 	568.3051007336269;
2	 : 	24.18583379598806;
3	 : 	486.08529641466;
4	 : 	0;
5	 : 	296.72461269580833;
6	 : 	0;
7	 : 	2925.1012463215807;
8	 : 	561.8005957333257;


Origin 7
1	 : 	767.4540263121079;
2	 : 	283.7131205785307;
3	 : 	921.5924350878184;
4	 : 	301.9640304508256;
5	 : 	420.18481514090564;
6	 : 	1994.926599239315;
7	 : 	0;
8	 : 	398.64892607619373;


Origin 8
1	 : 	435.6706275228747;
2	 : 	257.4465102752324;
3	 : 	176.5568603559748;
4	 : 	1644.9028004187178;
5	 : 	128.40435012468686;
6	 : 	120.9074422014403;
7	 : 	122.29342455905889;
8	 : 	0;


