<NUMBER OF ZONES> 2
<NUMBER OF NODES> 4
<FIRST THRU NODE> 1
<NUMBER OF LINKS> 6
<END OF METADATA>
~  Init node  Term node  Capacity  Length  Free Flow Time  B  Power  Speed limit  Toll  Type  ;
	1	3	100.0	15.0	1.0	70.0	1.0	0.0	0.0	1.0	;
	1	4	100000.0	15.0	45.0	70.0	1.0	0.0	0.0	1.0	;
	3	2	100000.0	15.0	45.0	70.0	1.0	0.0	0.0	1.0	;
	3	4	100000.0	15.0	1e-05	70.0	1.0	0.0	0.0	1.0	;
	4	2	100.0	15.0	1.0	70.0	1.0	0.0	0.0	1.0	;
	2	1	2000000.0	15.0	1.0	70.0	1.0	0.0	0.0	1.0	;
