<NUMBER OF ZONES> 2
<NUMBER OF NODES> 3781
<FIRST THRU NODE> 1
<NUMBER OF LINKS> 6081
<END OF METADATA>
~  Init node  Term node  Capacity  Length  Free Flow Time  B  Power  Speed limit  Toll  Type  ;
	1025	232	288.756119	72.18903	0.207788	0.0	15.0	0.0	0.0	0.0	;
	1025	2697	200.606334	50.151584	0.133502	0.0	6.695333	0.0	0.0	0.0	;
	232	150	287.063387	218.029521	0.036692	0.0	8.0	0.0	0.0	0.0	;
	1512	1051	151.225609	93.598691	0.19231	0.0	18.0	0.0	0.0	0.0	;
	1512	3032	280.162696	93.387565	0.160621	0.0	15.0	0.0	0.0	0.0	;
	1051	1031	77.029442	25.676481	0.544156	0.0	13.972	0.0	0.0	0.0	;
	1051	1512	77.029442	93.598691	0.181626	0.0	17.0	0.0	0.0	0.0	;
	3385	1850	89.999591	22.499898	0.66667	0.0	15.0	0.0	0.0	0.0	;
	3385	327	74.54747	18.636867	0.804856	0.0	15.0	0.0	0.0	0.0	;
	1850	1930	247.014039	61.75351	0.242901	0.0	15.0	0.0	0.0	0.0	;
	1850	3385	89.999591	22.499898	0.66667	0.0	15.0	0.0	0.0	0.0	;
	1850	649	243.704265	60.926066	0.2462	0.0	15.0	0.0	0.0	0.0	;
	3033	3036	84.217467	28.072489	1.031081	0.0	28.945	0.0	0.0	0.0	;
	3036	3063	729.41172	243.13724	0.119048	0.0	28.945	0.0	0.0	0.0	;
	538	3325	463.186986	154.395662	0.023038	0.0	3.557	0.0	0.0	0.0	;
	538	2425	238.667336	79.555779	0.183427	0.0	14.592667	0.0	0.0	0.0	;
	3325	2720	272.664674	68.166168	0.287107	0.0	19.571	0.0	0.0	0.0	;
	3325	84	646.450203	215.483401	0.041292	0.0	8.897667	0.0	0.0	0.0	;
	1673	349	991.025082	247.75627	0.080272	0.0	19.888	0.0	0.0	0.0	;
	349	1104	317.732198	79.43305	0.250374	0.0	19.888	0.0	0.0	0.0	;
	1225	815	318.557819	79.639455	0.313915	0.0	25.0	0.0	0.0	0.0	;
	815	943	318.24192	79.56048	0.314226	0.0	25.0	0.0	0.0	0.0	;
	1699	1061	237.497544	80.918452	0.308953	0.0	25.0	0.0	0.0	0.0	;
	1061	2346	318.483119	87.301381	0.286364	0.0	25.0	0.0	0.0	0.0	;
	2580	2574	821.421018	288.632871	0.131655	0.0	38.0	0.0	0.0	0.0	;
	2580	2609	15.575199	7.787599	3.210232	0.0	25.0	0.0	0.0	0.0	;
	2574	2603	278.171832	271.095467	0.103285	0.0	28.0	0.0	0.0	0.0	;
	1777	457	237.089567	80.156133	0.399221	0.0	32.0	0.0	0.0	0.0	;
	457	1543	238.504145	79.501382	0.252103	0.0	20.0425	0.0	0.0	0.0	;
	2964	3698	317.317105	79.329276	0.26098	0.0	20.703333	0.0	0.0	0.0	;
	3698	3700	323.664281	80.91607	0.255862	0.0	20.703333	0.0	0.0	0.0	;
	1979	593	321.54551	46.985313	0.425665	0.0	20.0	0.0	0.0	0.0	;
	1979	1227	309.535866	77.383967	0.225848	0.0	17.477	0.0	0.0	0.0	;
	593	2812	297.228402	111.831874	0.160956	0.0	18.0	0.0	0.0	0.0	;
	593	2601	297.228402	148.614201	0.088854	0.0	13.205	0.0	0.0	0.0	;
	1806	1848	330.29053	82.572632	0.207575	0.0	17.14	0.0	0.0	0.0	;
	1848	1877	376.441674	94.110418	0.182126	0.0	17.14	0.0	0.0	0.0	;
	601	1788	235.4437	78.481233	0.318547	0.0	25.0	0.0	0.0	0.0	;
	1788	781	218.014419	109.00721	0.229343	0.0	25.0	0.0	0.0	0.0	;
	1788	1792	236.931452	78.977151	0.316547	0.0	25.0	0.0	0.0	0.0	;
	2342	3148	237.1874	79.062467	0.176654	0.0	13.966714	0.0	0.0	0.0	;
	2342	2608	59.84864	19.949547	0.776358	0.0	15.488	0.0	0.0	0.0	;
	3148	2340	239.705629	79.901876	0.174798	0.0	13.966714	0.0	0.0	0.0	;
	3148	938	435.113186	145.037729	0.081016	0.0	11.750333	0.0	0.0	0.0	;
	2413	3239	554.789753	277.394876	0.0781	0.0	21.664667	0.0	0.0	0.0	;
	2413	3714	554.789753	928.836695	0.033375	0.0	31.0	0.0	0.0	0.0	;
	3239	3026	234.655584	78.218528	0.19177	0.0	15.0	0.0	0.0	0.0	;
	3192	949	129.134454	43.044818	0.281559	0.0	12.119667	0.0	0.0	0.0	;
	3192	3776	81.989594	27.329865	0.443459	0.0	12.119667	0.0	0.0	0.0	;
	949	556	325.563532	140.583357	0.02134	0.0	3.0	0.0	0.0	0.0	;
	949	263	325.563532	51.043383	0.176321	0.0	9.0	0.0	0.0	0.0	;
	949	1477	325.563532	121.704163	0.082166	0.0	10.0	0.0	0.0	0.0	;
	949	3192	129.134454	43.044818	0.281559	0.0	12.119667	0.0	0.0	0.0	;
	122	121	346.02894	86.743051	0.288208	0.0	25.0	0.0	0.0	0.0	;
	122	3161	430.143997	215.071998	0.057399	0.0	12.345	0.0	0.0	0.0	;
	121	51	335.99955	228.764495	0.06557	0.0	15.0	0.0	0.0	0.0	;
	121	3591	346.02894	86.507235	0.288993	0.0	25.0	0.0	0.0	0.0	;
	121	3354	650.859555	216.953185	0.035434	0.0	7.6875	0.0	0.0	0.0	;
	1192	1194	337.070078	165.120435	0.151405	0.0	25.0	0.0	0.0	0.0	;
	1192	3657	337.070078	62.977372	0.396968	0.0	25.0	0.0	0.0	0.0	;
	1192	168	337.070078	84.26752	0.237339	0.0	20.0	0.0	0.0	0.0	;
	1194	1192	263.909163	165.120435	0.151405	0.0	25.0	0.0	0.0	0.0	;
	1194	169	339.394963	84.848741	0.294642	0.0	25.0	0.0	0.0	0.0	;
	1194	1195	263.909163	137.907096	0.181281	0.0	25.0	0.0	0.0	0.0	;
	3623	2942	40.170815	13.390272	1.116781	0.0	14.954	0.0	0.0	0.0	;
	3623	2916	800.722455	266.907485	0.030695	0.0	8.19275	0.0	0.0	0.0	;
	3623	2468	340.435018	85.108754	0.240873	0.0	20.500417	0.0	0.0	0.0	;
	2942	2288	342.714333	265.722976	0.086556	0.0	23.0	0.0	0.0	0.0	;
	2942	3623	40.170815	13.390272	1.116781	0.0	14.954	0.0	0.0	0.0	;
	2942	2945	342.714333	85.678583	0.175073	0.0	15.0	0.0	0.0	0.0	;
	681	2574	258.885921	135.488142	0.110711	0.0	15.0	0.0	0.0	0.0	;
	681	687	38.109689	19.054844	1.312002	0.0	25.0	0.0	0.0	0.0	;
	3432	3388	297.06533	74.266333	0.312032	0.0	23.1735	0.0	0.0	0.0	;
	3388	930	715.94447	238.648157	0.033927	0.0	8.0965	0.0	0.0	0.0	;
	3388	2926	52.015954	17.338651	0.941134	0.0	16.318	0.0	0.0	0.0	;
	2467	1599	257.238422	85.746141	0.096599	0.0	8.283	0.0	0.0	0.0	;
	1599	3450	68.615269	22.871756	0.344705	0.0	7.884	0.0	0.0	0.0	;
	1599	1493	431.463075	143.821025	0.054818	0.0	7.884	0.0	0.0	0.0	;
	1599	2469	263.411212	87.803737	0.186017	0.0	16.333024	0.0	0.0	0.0	;
	637	392	158.655372	79.327686	0.189089	0.0	15.0	0.0	0.0	0.0	;
	637	413	161.398053	80.699026	0.185876	0.0	15.0	0.0	0.0	0.0	;
	392	388	157.196564	78.598282	0.190844	0.0	15.0	0.0	0.0	0.0	;
	392	637	158.655372	79.327686	0.189089	0.0	15.0	0.0	0.0	0.0	;
	3146	1319	233.677275	216.668539	0.036923	0.0	8.0	0.0	0.0	0.0	;
	3146	688	233.677275	2420.482891	0.007437	0.0	18.0	0.0	0.0	0.0	;
	3146	3379	233.677275	305.594539	0.071991	0.0	22.0	0.0	0.0	0.0	;
	1319	338	316.346285	79.086571	0.231797	0.0	18.332	0.0	0.0	0.0	;
	1319	3146	316.346285	216.668539	0.12923	0.0	28.0	0.0	0.0	0.0	;
	3008	378	257.604422	85.868141	0.114563	0.0	9.837333	0.0	0.0	0.0	;
	3008	3011	237.172347	153.457177	0.13033	0.0	20.0	0.0	0.0	0.0	;
	3008	3002	587.34188	146.83547	0.058644	0.0	8.611	0.0	0.0	0.0	;
	378	1215	238.4635	79.487833	0.123759	0.0	9.837333	0.0	0.0	0.0	;
	1668	1666	303.671841	75.91796	0.329303	0.0	25.0	0.0	0.0	0.0	;
	1668	3526	296.172558	98.724186	0.253231	0.0	25.0	0.0	0.0	0.0	;
	1668	1670	142.954189	35.738547	0.699525	0.0	25.0	0.0	0.0	0.0	;
	1666	1668	303.671841	75.91796	0.329303	0.0	25.0	0.0	0.0	0.0	;
	1666	1664	304.133062	76.033265	0.328803	0.0	25.0	0.0	0.0	0.0	;
	2192	2194	237.263645	79.087882	0.205477	0.0	16.250778	0.0	0.0	0.0	;
	2192	3010	241.452758	80.484253	0.201913	0.0	16.250778	0.0	0.0	0.0	;
	2194	2192	237.263645	79.087882	0.205477	0.0	16.250778	0.0	0.0	0.0	;
	2194	1618	261.57842	87.192807	0.186378	0.0	16.250778	0.0	0.0	0.0	;
	3417	1281	185.601605	92.800802	0.114428	0.0	10.619	0.0	0.0	0.0	;
	1281	3202	203.305727	101.652863	0.344309	0.0	35.0	0.0	0.0	0.0	;
	1281	2748	100.480264	25.120066	0.60169	0.0	15.1145	0.0	0.0	0.0	;
	1026	2152	362.454702	120.818234	0.248307	0.0	30.0	0.0	0.0	0.0	;
	1026	1860	50.064378	16.688126	0.901719	0.0	15.048	0.0	0.0	0.0	;
	1026	2586	355.564816	88.891204	0.281243	0.0	25.0	0.0	0.0	0.0	;
	2152	2149	263.190452	87.730151	0.194946	0.0	17.102667	0.0	0.0	0.0	;
	2152	3219	723.720483	241.240161	0.124357	0.0	30.0	0.0	0.0	0.0	;
	2152	1026	362.454702	120.818234	0.248307	0.0	30.0	0.0	0.0	0.0	;
	2152	2154	256.906962	85.635654	0.210298	0.0	18.009	0.0	0.0	0.0	;
	1277	478	1094.73067	273.682668	0.091347	0.0	25.0	0.0	0.0	0.0	;
	1277	992	305.696573	76.424143	0.175167	0.0	13.387	0.0	0.0	0.0	;
	1277	1602	502.940072	125.735018	0.198831	0.0	25.0	0.0	0.0	0.0	;
	478	1277	1094.73067	273.682668	0.091347	0.0	25.0	0.0	0.0	0.0	;
	478	1274	1095.81151	273.952877	0.091257	0.0	25.0	0.0	0.0	0.0	;
	478	1403	258.547965	86.182655	0.290082	0.0	25.0	0.0	0.0	0.0	;
	467	1396	1095.04816	273.76204	0.09132	0.0	25.0	0.0	0.0	0.0	;
	467	468	252.492307	84.164102	0.297039	0.0	25.0	0.0	0.0	0.0	;
	467	1399	1095.04816	275.914953	0.090608	0.0	25.0	0.0	0.0	0.0	;
	1396	1801	1646.538361	275.253723	0.090825	0.0	25.0	0.0	0.0	0.0	;
	1396	2629	265.961608	88.653869	0.281996	0.0	25.0	0.0	0.0	0.0	;
	1396	467	1095.04816	273.76204	0.09132	0.0	25.0	0.0	0.0	0.0	;
	3573	1681	588.786439	147.19661	0.169841	0.0	25.0	0.0	0.0	0.0	;
	3573	3570	198.528096	49.632024	0.503707	0.0	25.0	0.0	0.0	0.0	;
	3573	2892	158.495352	84.531291	0.295748	0.0	25.0	0.0	0.0	0.0	;
	3573	1448	158.495352	79.247676	0.441653	0.0	35.0	0.0	0.0	0.0	;
	1681	1679	211.141761	52.78544	0.473615	0.0	25.0	0.0	0.0	0.0	;
	2393	2039	263.272924	87.757641	0.195659	0.0	17.1706	0.0	0.0	0.0	;
	2393	3227	243.343027	81.114342	0.211684	0.0	17.1706	0.0	0.0	0.0	;
	2039	2140	430.415159	143.47172	0.084449	0.0	12.116	0.0	0.0	0.0	;
	2039	712	263.350522	87.783507	0.196529	0.0	17.252	0.0	0.0	0.0	;
	2039	386	36.980976	12.326992	1.651782	0.0	20.3615	0.0	0.0	0.0	;
	2039	2393	263.272924	87.757641	0.195659	0.0	17.1706	0.0	0.0	0.0	;
	1567	220	38.974897	9.743724	1.539452	0.0	15.0	0.0	0.0	0.0	;
	1567	978	138.681658	34.670415	0.721076	0.0	25.0	0.0	0.0	0.0	;
	220	2396	365.468696	91.367174	0.218478	0.0	19.9617	0.0	0.0	0.0	;
	220	3633	20.122729	6.707576	1.141247	0.0	7.655	0.0	0.0	0.0	;
	3027	1815	191.574462	95.787231	0.156597	0.0	15.0	0.0	0.0	0.0	;
	3027	3029	410.812247	93.233478	0.160886	0.0	15.0	0.0	0.0	0.0	;
	1815	3023	55.083334	18.361111	1.242735	0.0	22.818	0.0	0.0	0.0	;
	1815	3740	740.209208	246.736403	0.091859	0.0	22.665	0.0	0.0	0.0	;
	1956	2400	467.477241	429.672783	0.046547	0.0	20.0	0.0	0.0	0.0	;
	1956	3360	101.913794	25.478449	0.857195	0.0	21.84	0.0	0.0	0.0	;
	1956	993	68.970634	34.485317	0.434968	0.0	15.0	0.0	0.0	0.0	;
	2400	1956	72.388881	429.672783	0.048874	0.0	21.0	0.0	0.0	0.0	;
	2400	2337	72.388881	36.194441	0.414428	0.0	15.0	0.0	0.0	0.0	;
	2400	920	260.342323	54.596397	0.476222	0.0	26.0	0.0	0.0	0.0	;
	1968	3321	261.937241	87.312414	0.217468	0.0	18.987667	0.0	0.0	0.0	;
	1968	3203	222.927478	74.309159	0.255523	0.0	18.987667	0.0	0.0	0.0	;
	3321	1536	561.687023	187.229008	0.101414	0.0	18.987667	0.0	0.0	0.0	;
	3321	1968	261.937241	87.312414	0.217468	0.0	18.987667	0.0	0.0	0.0	;
	2539	2554	300.432431	75.108108	0.332854	0.0	25.0	0.0	0.0	0.0	;
	2554	2549	292.568326	73.142081	0.341801	0.0	25.0	0.0	0.0	0.0	;
	2554	2624	564.07201	141.018002	0.177282	0.0	25.0	0.0	0.0	0.0	;
	2554	1873	62.230158	15.557539	1.606938	0.0	25.0	0.0	0.0	0.0	;
	1887	2036	315.662395	78.915599	0.316794	0.0	25.0	0.0	0.0	0.0	;
	2036	125	239.761058	80.354861	0.31112	0.0	25.0	0.0	0.0	0.0	;
	294	3285	974.687398	324.895799	0.036907	0.0	11.991	0.0	0.0	0.0	;
	294	3207	25.890757	8.630252	1.989583	0.0	17.1706	0.0	0.0	0.0	;
	3285	294	974.687398	324.895799	0.036907	0.0	11.991	0.0	0.0	0.0	;
	3285	2386	51.632483	17.210828	0.869685	0.0	14.968	0.0	0.0	0.0	;
	3285	1395	209.925484	69.975161	0.335626	0.0	23.4855	0.0	0.0	0.0	;
	1554	1544	214.878736	53.719684	0.465379	0.0	25.0	0.0	0.0	0.0	;
	1554	1538	62.562694	20.854231	1.198797	0.0	25.0	0.0	0.0	0.0	;
	1554	1464	215.455603	71.818534	0.3481	0.0	25.0	0.0	0.0	0.0	;
	1544	1552	77.955261	38.97763	0.641394	0.0	25.0	0.0	0.0	0.0	;
	1544	1546	135.553012	33.888253	0.737719	0.0	25.0	0.0	0.0	0.0	;
	880	2212	294.980138	98.326713	0.100949	0.0	9.926	0.0	0.0	0.0	;
	880	1202	522.083009	130.520752	0.068556	0.0	8.948	0.0	0.0	0.0	;
	880	954	522.083009	72.57331	0.206688	0.0	15.0	0.0	0.0	0.0	;
	2212	880	294.980138	98.326713	0.100949	0.0	9.926	0.0	0.0	0.0	;
	2212	340	219.151366	73.050455	0.237115	0.0	17.321333	0.0	0.0	0.0	;
	1610	2950	257.93625	85.97875	0.272632	0.0	23.440591	0.0	0.0	0.0	;
	1610	326	256.666862	85.555621	0.273981	0.0	23.440591	0.0	0.0	0.0	;
	1610	2278	256.666862	137.497502	0.174549	0.0	24.0	0.0	0.0	0.0	;
	2950	1610	257.93625	85.97875	0.272632	0.0	23.440591	0.0	0.0	0.0	;
	2950	330	241.183096	80.394365	0.29157	0.0	23.440591	0.0	0.0	0.0	;
	1298	1076	198.127677	99.063838	0.151418	0.0	15.0	0.0	0.0	0.0	;
	1298	1509	235.40848	117.70424	0.127438	0.0	15.0	0.0	0.0	0.0	;
	1298	1296	705.51629	176.379072	0.120159	0.0	21.193571	0.0	0.0	0.0	;
	1298	1299	706.98538	176.746345	0.11991	0.0	21.193571	0.0	0.0	0.0	;
	1076	2099	161.52242	80.76121	0.185733	0.0	15.0	0.0	0.0	0.0	;
	1076	1298	198.127677	99.063838	0.151418	0.0	15.0	0.0	0.0	0.0	;
	3631	2048	45.049839	15.016613	1.664823	0.0	25.0	0.0	0.0	0.0	;
	2048	873	139.087163	46.362388	0.53923	0.0	25.0	0.0	0.0	0.0	;
	1391	3768	241.411601	80.470534	0.26628	0.0	21.427714	0.0	0.0	0.0	;
	1391	3703	239.253728	79.751243	0.182629	0.0	14.5649	0.0	0.0	0.0	;
	3768	2287	258.634854	86.211618	0.248548	0.0	21.427714	0.0	0.0	0.0	;
	3768	1391	241.411601	80.470534	0.26628	0.0	21.427714	0.0	0.0	0.0	;
	389	1596	107.852786	26.963197	0.92719	0.0	25.0	0.0	0.0	0.0	;
	389	2719	316.004675	79.001169	0.316451	0.0	25.0	0.0	0.0	0.0	;
	1596	389	107.852786	26.963197	0.92719	0.0	25.0	0.0	0.0	0.0	;
	1596	2182	200.059128	50.014782	0.499852	0.0	25.0	0.0	0.0	0.0	;
	1543	1088	242.483527	80.827842	0.247965	0.0	20.0425	0.0	0.0	0.0	;
	1088	1545	236.101787	78.700596	0.254668	0.0	20.0425	0.0	0.0	0.0	;
	1526	2473	451.911883	150.637294	0.165962	0.0	25.0	0.0	0.0	0.0	;
	2473	2412	218.23114	72.743713	0.343672	0.0	25.0	0.0	0.0	0.0	;
	3127	2310	780.093405	195.023351	0.053573	0.0	10.448	0.0	0.0	0.0	;
	3127	3453	72.555518	18.13888	0.678873	0.0	12.314	0.0	0.0	0.0	;
	2310	148	67.441401	16.86035	1.009766	0.0	17.025	0.0	0.0	0.0	;
	2310	3127	780.093405	195.023351	0.053573	0.0	10.448	0.0	0.0	0.0	;
	2310	1833	163.823724	81.911862	0.282426	0.0	23.134	0.0	0.0	0.0	;
	298	1410	231.199219	77.066406	0.324396	0.0	25.0	0.0	0.0	0.0	;
	298	783	460.639668	230.319834	0.108545	0.0	25.0	0.0	0.0	0.0	;
	1410	598	236.395042	78.798347	0.317266	0.0	25.0	0.0	0.0	0.0	;
	1410	1204	308.625614	154.312807	0.162009	0.0	25.0	0.0	0.0	0.0	;
	2233	2759	594.635028	111.723309	0.13426	0.0	15.0	0.0	0.0	0.0	;
	2233	2551	388.952834	129.650945	0.108923	0.0	14.122	0.0	0.0	0.0	;
	2759	260	1076.332696	538.166348	0.048254	0.0	25.968667	0.0	0.0	0.0	;
	1955	1273	467.477241	155.825747	0.092334	0.0	14.388	0.0	0.0	0.0	;
	1955	939	239.342794	79.780931	0.09753	0.0	7.781	0.0	0.0	0.0	;
	1273	77	641.40844	213.802813	0.070158	0.0	15.0	0.0	0.0	0.0	;
	1273	2591	319.916574	79.979143	0.11718	0.0	9.371929	0.0	0.0	0.0	;
	3273	1787	255.913897	85.304632	0.293067	0.0	25.0	0.0	0.0	0.0	;
	1787	3357	184.278257	72.366641	0.345463	0.0	25.0	0.0	0.0	0.0	;
	282	1431	238.859283	133.641262	0.202033	0.0	27.0	0.0	0.0	0.0	;
	282	281	238.859283	79.619761	0.219889	0.0	17.5075	0.0	0.0	0.0	;
	282	284	242.217439	80.739146	0.195605	0.0	15.793	0.0	0.0	0.0	;
	1431	284	358.574098	119.524699	0.077005	0.0	9.204	0.0	0.0	0.0	;
	1431	85	1682.233285	560.744428	0.046677	0.0	26.174	0.0	0.0	0.0	;
	3424	3018	240.611458	80.203819	0.297511	0.0	23.8615	0.0	0.0	0.0	;
	3424	20	9.862325	4.931162	3.041879	0.0	15.0	0.0	0.0	0.0	;
	3018	3112	453.028263	151.009421	0.158013	0.0	23.8615	0.0	0.0	0.0	;
	3765	2858	312.723711	78.180928	0.191863	0.0	15.0	0.0	0.0	0.0	;
	2858	2859	323.45013	80.862533	0.1855	0.0	15.0	0.0	0.0	0.0	;
	3674	2810	238.466449	79.488816	0.31451	0.0	25.0	0.0	0.0	0.0	;
	2810	1274	256.756087	85.585362	0.292106	0.0	25.0	0.0	0.0	0.0	;
	1294	3478	210.274594	52.568649	0.332771	0.0	17.4933	0.0	0.0	0.0	;
	1294	1295	519.538175	129.884544	0.163172	0.0	21.193571	0.0	0.0	0.0	;
	1294	2982	498.056575	124.514144	0.07812	0.0	9.727	0.0	0.0	0.0	;
	1294	2985	200.873133	100.436567	0.149348	0.0	15.0	0.0	0.0	0.0	;
	1294	2994	396.928384	99.232096	0.218276	0.0	21.66	0.0	0.0	0.0	;
	3478	1293	134.296026	33.574006	0.521037	0.0	17.4933	0.0	0.0	0.0	;
	3478	1294	210.274594	52.568649	0.332771	0.0	17.4933	0.0	0.0	0.0	;
	1881	1892	295.215705	98.405235	0.152431	0.0	15.0	0.0	0.0	0.0	;
	1881	25	9.510616	4.755308	3.15437	0.0	15.0	0.0	0.0	0.0	;
	1892	1502	218.218121	72.739374	0.238921	0.0	17.379	0.0	0.0	0.0	;
	2948	2935	318.493533	79.838369	0.18788	0.0	15.0	0.0	0.0	0.0	;
	2935	2939	310.10115	77.525288	0.19987	0.0	15.495	0.0	0.0	0.0	;
	769	2356	323.456202	245.76065	0.065104	0.0	16.0	0.0	0.0	0.0	;
	769	2262	323.456202	80.864051	0.229531	0.0	18.5608	0.0	0.0	0.0	;
	2356	978	59.894319	50.486802	0.297107	0.0	15.0	0.0	0.0	0.0	;
	2356	220	59.894319	19.964773	0.695926	0.0	13.894	0.0	0.0	0.0	;
	3734	2154	233.659223	77.886408	0.220703	0.0	17.18975	0.0	0.0	0.0	;
	3734	1749	244.733803	81.577934	0.210716	0.0	17.18975	0.0	0.0	0.0	;
	2154	2152	256.906962	85.635654	0.210298	0.0	18.009	0.0	0.0	0.0	;
	2154	3734	233.659223	77.886408	0.220703	0.0	17.18975	0.0	0.0	0.0	;
	1336	2987	262.919551	87.63985	0.189606	0.0	16.617	0.0	0.0	0.0	;
	1336	1339	463.411397	154.470466	0.086797	0.0	13.4075	0.0	0.0	0.0	;
	2987	2587	240.573078	80.191026	0.182161	0.0	14.607667	0.0	0.0	0.0	;
	2987	3457	522.512104	174.170701	0.143537	0.0	25.0	0.0	0.0	0.0	;
	1402	1404	55.95645	27.978225	0.714842	0.0	20.0	0.0	0.0	0.0	;
	1402	3592	489.094139	244.547069	0.061338	0.0	15.0	0.0	0.0	0.0	;
	1404	3774	25.805063	12.902531	1.162563	0.0	15.0	0.0	0.0	0.0	;
	3374	1934	318.995936	79.748984	0.276876	0.0	22.0806	0.0	0.0	0.0	;
	1934	714	351.424893	87.856223	0.131613	0.0	11.563	0.0	0.0	0.0	;
	1778	3653	233.876438	77.958813	0.320682	0.0	25.0	0.0	0.0	0.0	;
	3653	3254	235.152746	78.384249	0.318942	0.0	25.0	0.0	0.0	0.0	;
	1238	2234	239.930594	119.965297	0.125036	0.0	15.0	0.0	0.0	0.0	;
	1238	2099	112.23167	56.115835	0.267304	0.0	15.0	0.0	0.0	0.0	;
	2234	3576	266.302384	133.151192	0.112654	0.0	15.0	0.0	0.0	0.0	;
	2234	2236	163.562481	81.781241	0.183416	0.0	15.0	0.0	0.0	0.0	;
	2234	1238	239.930594	119.965297	0.125036	0.0	15.0	0.0	0.0	0.0	;
	1959	1775	347.335277	86.833819	0.2924	0.0	25.39025	0.0	0.0	0.0	;
	1775	3426	345.395299	86.348825	0.294043	0.0	25.39025	0.0	0.0	0.0	;
	1775	3641	455.587162	151.862387	0.082756	0.0	12.5675	0.0	0.0	0.0	;
	1775	3683	51.900429	17.300143	0.726439	0.0	12.5675	0.0	0.0	0.0	;
	647	2698	256.862394	973.059724	0.025692	0.0	25.0	0.0	0.0	0.0	;
	647	2790	971.774463	323.924821	0.05561	0.0	18.0135	0.0	0.0	0.0	;
	647	3302	256.862394	85.620798	0.194783	0.0	16.6775	0.0	0.0	0.0	;
	647	208	93.578793	271.844892	0.055179	0.0	15.0	0.0	0.0	0.0	;
	2698	1052	260.080794	86.693598	0.10491	0.0	9.095	0.0	0.0	0.0	;
	2698	647	331.286301	973.059724	0.025692	0.0	25.0	0.0	0.0	0.0	;
	2698	2483	462.665854	154.221951	0.043518	0.0	6.7115	0.0	0.0	0.0	;
	1260	2281	314.176101	78.544025	0.318293	0.0	25.0	0.0	0.0	0.0	;
	2281	980	317.086535	75.239026	0.332274	0.0	25.0	0.0	0.0	0.0	;
	2140	2039	430.415159	143.47172	0.084449	0.0	12.116	0.0	0.0	0.0	;
	2140	3683	313.860932	104.620311	0.115809	0.0	12.116	0.0	0.0	0.0	;
	2140	710	261.211318	87.070439	0.196423	0.0	17.102667	0.0	0.0	0.0	;
	2140	1631	259.093596	86.364532	0.198029	0.0	17.102667	0.0	0.0	0.0	;
	210	3292	381.86005	127.286683	0.196407	0.0	25.0	0.0	0.0	0.0	;
	210	3289	584.484558	194.828186	0.128318	0.0	25.0	0.0	0.0	0.0	;
	210	2850	115.539494	38.513165	0.316801	0.0	12.201	0.0	0.0	0.0	;
	3292	3293	388.503343	129.501114	0.193049	0.0	25.0	0.0	0.0	0.0	;
	3292	210	381.86005	127.286683	0.196407	0.0	25.0	0.0	0.0	0.0	;
	2996	2460	24.931715	12.465857	2.005478	0.0	25.0	0.0	0.0	0.0	;
	1509	1298	235.40848	117.70424	0.127438	0.0	15.0	0.0	0.0	0.0	;
	1509	2238	352.840864	176.420432	0.085024	0.0	15.0	0.0	0.0	0.0	;
	1509	1508	353.385437	176.692718	0.084893	0.0	15.0	0.0	0.0	0.0	;
	1509	629	237.957739	118.978869	0.126073	0.0	15.0	0.0	0.0	0.0	;
	2491	799	581.862539	193.95418	0.048156	0.0	9.34	0.0	0.0	0.0	;
	2491	2490	238.450234	79.483411	0.314531	0.0	25.0	0.0	0.0	0.0	;
	799	1805	245.311319	81.77044	0.114222	0.0	9.34	0.0	0.0	0.0	;
	1018	372	156.478822	78.239411	0.202328	0.0	15.83	0.0	0.0	0.0	;
	372	1022	160.471099	80.23555	0.197294	0.0	15.83	0.0	0.0	0.0	;
	372	1018	156.478822	78.239411	0.202328	0.0	15.83	0.0	0.0	0.0	;
	3457	2349	241.506335	733.277273	0.034094	0.0	25.0	0.0	0.0	0.0	;
	3457	2587	241.506335	187.501793	0.133332	0.0	25.0	0.0	0.0	0.0	;
	2349	240	602.454109	271.587907	0.110461	0.0	30.0	0.0	0.0	0.0	;
	2349	3577	255.558886	85.186295	0.188857	0.0	16.088	0.0	0.0	0.0	;
	2349	3457	255.558886	733.277273	0.034094	0.0	25.0	0.0	0.0	0.0	;
	2349	3092	264.538906	88.179635	0.182446	0.0	16.088	0.0	0.0	0.0	;
	2006	2004	237.321136	79.107045	0.233258	0.0	18.452333	0.0	0.0	0.0	;
	2004	2581	823.840181	274.613394	0.018261	0.0	5.0147	0.0	0.0	0.0	;
	2004	1999	239.171503	79.723834	0.231453	0.0	18.452333	0.0	0.0	0.0	;
	1451	504	198.338468	49.584617	0.504189	0.0	25.0	0.0	0.0	0.0	;
	1451	2347	198.338468	166.185928	0.150434	0.0	25.0	0.0	0.0	0.0	;
	504	1206	50.458517	12.614629	1.981826	0.0	25.0	0.0	0.0	0.0	;
	504	1451	198.338468	49.584617	0.504189	0.0	25.0	0.0	0.0	0.0	;
	2097	3383	160.469836	53.489945	0.1914	0.0	10.238	0.0	0.0	0.0	;
	2097	3630	291.671139	72.917785	0.205711	0.0	15.0	0.0	0.0	0.0	;
	2097	374	160.469836	85.117447	0.281963	0.0	24.0	0.0	0.0	0.0	;
	2097	1022	361.822421	180.91121	0.082914	0.0	15.0	0.0	0.0	0.0	;
	3383	649	27.331019	9.11034	0.999304	0.0	9.104	0.0	0.0	0.0	;
	3383	2097	160.469836	53.489945	0.1914	0.0	10.238	0.0	0.0	0.0	;
	573	2270	342.061939	85.515485	0.193	0.0	16.5045	0.0	0.0	0.0	;
	573	736	343.276648	85.819162	0.192317	0.0	16.5045	0.0	0.0	0.0	;
	2270	573	342.061939	85.515485	0.193	0.0	16.5045	0.0	0.0	0.0	;
	2270	2107	330.733463	82.683366	0.142006	0.0	11.7415	0.0	0.0	0.0	;
	2270	3310	423.229439	141.07648	0.100144	0.0	14.128	0.0	0.0	0.0	;
	2270	2261	324.66069	108.22023	0.138606	0.0	15.0	0.0	0.0	0.0	;
	3293	3294	465.334683	155.111561	0.161174	0.0	25.0	0.0	0.0	0.0	;
	3293	3292	388.503343	129.501114	0.193049	0.0	25.0	0.0	0.0	0.0	;
	1279	1292	678.626664	169.656666	0.10311	0.0	17.4933	0.0	0.0	0.0	;
	1279	70	367.68345	91.920862	0.190308	0.0	17.4933	0.0	0.0	0.0	;
	1292	1279	678.626664	169.656666	0.10311	0.0	17.4933	0.0	0.0	0.0	;
	1292	1293	326.071466	81.517866	0.214595	0.0	17.4933	0.0	0.0	0.0	;
	548	545	237.991423	79.330474	0.189082	0.0	15.0	0.0	0.0	0.0	;
	548	550	237.330912	79.110304	0.189609	0.0	15.0	0.0	0.0	0.0	;
	545	548	237.991423	79.330474	0.189082	0.0	15.0	0.0	0.0	0.0	;
	545	543	238.284001	79.428	0.18885	0.0	15.0	0.0	0.0	0.0	;
	3436	2559	146.836646	73.418323	0.47672	0.0	35.0	0.0	0.0	0.0	;
	2559	1127	217.422784	108.711392	0.321953	0.0	35.0	0.0	0.0	0.0	;
	3532	2046	255.12259	142.847466	0.175012	0.0	25.0	0.0	0.0	0.0	;
	3532	1383	255.12259	85.040863	0.212904	0.0	18.1055	0.0	0.0	0.0	;
	3532	2486	78.107575	26.035858	0.960214	0.0	25.0	0.0	0.0	0.0	;
	2046	2044	258.135661	86.04522	0.290545	0.0	25.0	0.0	0.0	0.0	;
	2046	3532	258.135661	142.847466	0.175012	0.0	25.0	0.0	0.0	0.0	;
	2046	3362	463.520277	154.506759	0.161805	0.0	25.0	0.0	0.0	0.0	;
	1423	512	465.102075	155.034025	0.057645	0.0	8.937	0.0	0.0	0.0	;
	1423	1143	233.429526	77.809842	0.12733	0.0	9.9075	0.0	0.0	0.0	;
	512	1827	234.123248	78.041083	0.171077	0.0	13.351	0.0	0.0	0.0	;
	512	1807	238.86981	310.441936	0.045097	0.0	14.0	0.0	0.0	0.0	;
	362	366	597.365642	199.121881	0.075331	0.0	15.0	0.0	0.0	0.0	;
	362	3310	428.757154	142.919051	0.098853	0.0	14.128	0.0	0.0	0.0	;
	366	3592	742.459635	247.486545	0.060609	0.0	15.0	0.0	0.0	0.0	;
	366	362	597.365642	199.121881	0.075331	0.0	15.0	0.0	0.0	0.0	;
	978	217	235.694125	116.608673	0.214392	0.0	25.0	0.0	0.0	0.0	;
	978	3679	535.562624	133.890656	0.090208	0.0	12.078	0.0	0.0	0.0	;
	82	3025	249.267996	187.440837	0.048015	0.0	9.0	0.0	0.0	0.0	;
	82	2019	249.267996	275.285114	0.072652	0.0	20.0	0.0	0.0	0.0	;
	82	2522	249.267996	83.089332	0.138953	0.0	11.5455	0.0	0.0	0.0	;
	3025	3022	151.727128	50.575709	0.494308	0.0	25.0	0.0	0.0	0.0	;
	3025	82	151.727128	187.440837	0.09603	0.0	18.0	0.0	0.0	0.0	;
	1992	1991	240.626942	80.208981	0.230053	0.0	18.452333	0.0	0.0	0.0	;
	1992	2216	433.889283	274.302484	0.047393	0.0	13.0	0.0	0.0	0.0	;
	1991	1987	239.43968	79.813227	0.231194	0.0	18.452333	0.0	0.0	0.0	;
	1991	2678	592.043558	197.347853	0.042149	0.0	8.318	0.0	0.0	0.0	;
	723	11	278.157167	85.7451	0.303224	0.0	26.0	0.0	0.0	0.0	;
	723	726	278.157167	139.078583	0.04735	0.0	6.585333	0.0	0.0	0.0	;
	723	7	239.867779	79.955926	0.270236	0.0	21.607	0.0	0.0	0.0	;
	11	723	493.482245	85.7451	0.419849	0.0	36.0	0.0	0.0	0.0	;
	11	3778	493.482245	164.494082	0.170383	0.0	28.027	0.0	0.0	0.0	;
	1702	3723	239.974277	79.991426	0.239453	0.0	19.154214	0.0	0.0	0.0	;
	1702	3722	241.539584	80.513195	0.237902	0.0	19.154214	0.0	0.0	0.0	;
	3723	3725	230.395268	76.798423	0.249409	0.0	19.154214	0.0	0.0	0.0	;
	3723	1702	239.974277	79.991426	0.239453	0.0	19.154214	0.0	0.0	0.0	;
	1962	418	464.605919	78.011188	0.217917	0.0	17.0	0.0	0.0	0.0	;
	1962	532	464.605919	154.86864	0.057642	0.0	8.927	0.0	0.0	0.0	;
	418	3008	263.678647	87.892882	0.136928	0.0	12.035	0.0	0.0	0.0	;
	2973	2381	315.020293	78.755073	0.189156	0.0	14.897	0.0	0.0	0.0	;
	2973	2020	547.315515	273.657758	0.031333	0.0	8.574444	0.0	0.0	0.0	;
	2381	1646	341.10139	85.275348	0.174693	0.0	14.897	0.0	0.0	0.0	;
	3184	3537	153.328335	87.184667	0.286748	0.0	25.0	0.0	0.0	0.0	;
	3537	917	648.80544	162.20136	0.154129	0.0	25.0	0.0	0.0	0.0	;
	3537	127	684.71573	228.238577	0.109535	0.0	25.0	0.0	0.0	0.0	;
	3428	3219	259.022519	86.34084	0.19887	0.0	17.1706	0.0	0.0	0.0	;
	3428	1657	255.291402	85.097134	0.201776	0.0	17.1706	0.0	0.0	0.0	;
	3219	3581	258.807918	86.269306	0.199035	0.0	17.1706	0.0	0.0	0.0	;
	3219	2152	723.720483	241.240161	0.124357	0.0	30.0	0.0	0.0	0.0	;
	3219	3428	259.022519	86.34084	0.19887	0.0	17.1706	0.0	0.0	0.0	;
	1820	1579	172.737161	57.579054	0.434186	0.0	25.0	0.0	0.0	0.0	;
	1820	3666	187.668466	46.917117	0.532855	0.0	25.0	0.0	0.0	0.0	;
	1820	3129	75.134902	25.044967	0.998205	0.0	25.0	0.0	0.0	0.0	;
	1579	1335	163.699464	54.566488	0.458157	0.0	25.0	0.0	0.0	0.0	;
	1579	1820	172.737161	57.579054	0.434186	0.0	25.0	0.0	0.0	0.0	;
	1466	1558	217.633375	72.544458	0.344616	0.0	25.0	0.0	0.0	0.0	;
	1466	291	237.62482	79.208273	0.315624	0.0	25.0	0.0	0.0	0.0	;
	1558	3651	563.687236	140.921809	0.177403	0.0	25.0	0.0	0.0	0.0	;
	1558	1534	67.051548	22.350516	1.118542	0.0	25.0	0.0	0.0	0.0	;
	1558	1466	217.633375	72.544458	0.344616	0.0	25.0	0.0	0.0	0.0	;
	1226	1230	224.152766	56.038192	0.312167	0.0	17.4933	0.0	0.0	0.0	;
	1226	1220	320.345404	80.086351	0.21843	0.0	17.4933	0.0	0.0	0.0	;
	1230	1233	456.49568	114.12392	0.153283	0.0	17.4933	0.0	0.0	0.0	;
	1230	1226	224.152766	56.038192	0.312167	0.0	17.4933	0.0	0.0	0.0	;
	1773	1774	234.497647	78.165882	0.319833	0.0	25.0	0.0	0.0	0.0	;
	1774	530	254.568719	84.85624	0.294616	0.0	25.0	0.0	0.0	0.0	;
	2493	2491	231.41734	77.139113	0.32409	0.0	25.0	0.0	0.0	0.0	;
	2493	471	820.225519	273.408506	0.037058	0.0	10.132	0.0	0.0	0.0	;
	900	2903	85.917247	21.479312	1.012742	0.0	21.753	0.0	0.0	0.0	;
	900	3360	113.683587	28.420897	0.682895	0.0	19.4085	0.0	0.0	0.0	;
	2903	3360	26.162349	13.081175	1.146686	0.0	15.0	0.0	0.0	0.0	;
	2903	993	56.003859	14.000965	1.548465	0.0	21.68	0.0	0.0	0.0	;
	631	2476	234.129556	117.064778	0.201367	0.0	23.573	0.0	0.0	0.0	;
	2476	3075	294.760112	147.380056	0.13434	0.0	19.799	0.0	0.0	0.0	;
	2476	3329	276.27967	138.139835	0.108586	0.0	15.0	0.0	0.0	0.0	;
	1930	649	25.984575	8.661525	1.731797	0.0	15.0	0.0	0.0	0.0	;
	1930	1932	706.079683	176.519921	0.084976	0.0	15.0	0.0	0.0	0.0	;
	1930	1752	227.872883	113.936442	0.131652	0.0	15.0	0.0	0.0	0.0	;
	971	2334	184.812149	92.406075	0.10084	0.0	9.3182	0.0	0.0	0.0	;
	971	1399	184.812149	83.588945	0.299083	0.0	25.0	0.0	0.0	0.0	;
	2334	3736	67.08463	33.542315	0.277804	0.0	9.3182	0.0	0.0	0.0	;
	2334	2332	84.60003	42.300015	0.35461	0.0	15.0	0.0	0.0	0.0	;
	1146	1145	319.685253	79.921313	0.283441	0.0	22.653	0.0	0.0	0.0	;
	1145	3308	316.333065	79.083266	0.286445	0.0	22.653	0.0	0.0	0.0	;
	2874	2875	335.427827	83.856957	0.145277	0.0	12.1825	0.0	0.0	0.0	;
	2874	3739	1080.102102	270.025526	0.054863	0.0	14.8145	0.0	0.0	0.0	;
	2874	1157	73.232087	18.308022	0.76999	0.0	14.097	0.0	0.0	0.0	;
	2875	254	332.946884	83.236721	0.14636	0.0	12.1825	0.0	0.0	0.0	;
	3193	3230	282.21409	141.107045	0.17717	0.0	25.0	0.0	0.0	0.0	;
	3230	3193	282.21409	141.107045	0.17717	0.0	25.0	0.0	0.0	0.0	;
	839	2343	320.552608	80.138152	0.311961	0.0	25.0	0.0	0.0	0.0	;
	839	2734	393.843228	131.281076	0.102592	0.0	13.468429	0.0	0.0	0.0	;
	2343	662	432.099664	216.049832	0.042558	0.0	9.19475	0.0	0.0	0.0	;
	2343	1645	319.124728	79.781182	0.313357	0.0	25.0	0.0	0.0	0.0	;
	3023	3559	340.003145	85.000786	0.272627	0.0	23.1735	0.0	0.0	0.0	;
	3023	1815	55.083334	18.361111	1.242735	0.0	22.818	0.0	0.0	0.0	;
	2002	3210	758.917044	189.729261	0.131767	0.0	25.0	0.0	0.0	0.0	;
	3210	3215	501.642473	125.410618	0.199345	0.0	25.0	0.0	0.0	0.0	;
	3210	2110	181.860925	90.930462	0.401318	0.0	36.492	0.0	0.0	0.0	;
	175	1707	135.977456	67.988728	0.157276	0.0	10.693	0.0	0.0	0.0	;
	175	3410	135.977456	68.248852	0.395611	0.0	27.0	0.0	0.0	0.0	;
	1707	3410	32.339417	16.169709	0.530278	0.0	8.574444	0.0	0.0	0.0	;
	1707	1708	174.539003	87.269501	0.122528	0.0	10.693	0.0	0.0	0.0	;
	3651	1554	538.298423	134.574606	0.185771	0.0	25.0	0.0	0.0	0.0	;
	3450	1599	68.615269	22.871756	0.344705	0.0	7.884	0.0	0.0	0.0	;
	3450	3141	257.031248	85.677083	0.127117	0.0	10.891	0.0	0.0	0.0	;
	3450	2038	432.509704	144.169901	0.054685	0.0	7.884	0.0	0.0	0.0	;
	2229	2246	131.407477	43.802492	0.460156	0.0	20.156	0.0	0.0	0.0	;
	2246	2245	234.626462	78.208821	0.319657	0.0	25.0	0.0	0.0	0.0	;
	576	3750	653.793075	163.448269	0.152954	0.0	25.0	0.0	0.0	0.0	;
	576	580	701.179297	175.294824	0.142617	0.0	25.0	0.0	0.0	0.0	;
	3750	576	653.793075	163.448269	0.152954	0.0	25.0	0.0	0.0	0.0	;
	3750	1149	102.154523	25.538631	0.978909	0.0	25.0	0.0	0.0	0.0	;
	3173	560	146.646944	73.323472	0.275739	0.0	20.218143	0.0	0.0	0.0	;
	3173	743	153.856334	76.928167	0.262818	0.0	20.218143	0.0	0.0	0.0	;
	560	722	176.369082	88.184541	0.170098	0.0	15.0	0.0	0.0	0.0	;
	560	3102	176.369082	118.831949	0.126229	0.0	15.0	0.0	0.0	0.0	;
	560	3173	146.646944	73.323472	0.275739	0.0	20.218143	0.0	0.0	0.0	;
	560	3571	176.369082	73.853544	0.203105	0.0	15.0	0.0	0.0	0.0	;
	2183	2185	237.858447	79.286149	0.204964	0.0	16.250778	0.0	0.0	0.0	;
	2183	2181	237.858447	86.041975	0.244067	0.0	21.0	0.0	0.0	0.0	;
	2185	2186	239.058201	79.686067	0.203935	0.0	16.250778	0.0	0.0	0.0	;
	2185	2183	237.858447	79.286149	0.204964	0.0	16.250778	0.0	0.0	0.0	;
	3718	1971	251.400568	83.800189	0.22857	0.0	19.154214	0.0	0.0	0.0	;
	3718	583	478.676358	159.558786	0.120045	0.0	19.154214	0.0	0.0	0.0	;
	1971	1973	253.444578	126.722289	0.118369	0.0	15.0	0.0	0.0	0.0	;
	1971	604	258.00291	86.00097	0.226822	0.0	19.506889	0.0	0.0	0.0	;
	1971	3754	539.934051	269.967025	0.054421	0.0	14.692	0.0	0.0	0.0	;