<NUMBER OF ZONES> 26
<NUMBER OF NODES> 359
<FIRST THRU NODE> 1
<NUMBER OF LINKS> 766
<END OF METADATA>
~  Init node  Term node  Capacity  Length  Free Flow Time  B  Power  Speed limit  Toll  Type  ;
	1	170	999999.0	0.0	0.0	0.0	4.0	0.0	0.0	0.0	;
	1	269	999999.0	0.0	0.0	0.0	4.0	0.0	0.0	0.0	;
	1	327	999999.0	0.0	0.0	0.0	4.0	0.0	0.0	0.0	;
	1	346	999999.0	0.0	0.0	0.0	4.0	0.0	0.0	0.0	;
	170	1	999999.0	0.0	0.0	0.0	4.0	0.0	0.0	0.0	;
	170	169	600.0	573.0	14.333333	1.0	4.0	0.0	0.0	1.0	;
	170	327	2400.0	63.0	1.666667	1.0	4.0	0.0	0.0	1.0	;
	269	1	999999.0	0.0	0.0	0.0	4.0	0.0	0.0	0.0	;
	269	266	900.0	176.0	5.0	1.0	4.0	0.0	0.0	1.0	;
	327	1	999999.0	0.0	0.0	0.0	4.0	0.0	0.0	0.0	;
	327	312	2400.0	712.0	20.0	1.0	4.0	0.0	0.0	1.0	;
	346	1	999999.0	0.0	0.0	0.0	4.0	0.0	0.0	0.0	;
	346	269	900.0	399.0	10.333333	1.0	4.0	0.0	0.0	1.0	;
	2	204	999999.0	0.0	0.0	0.0	4.0	0.0	0.0	0.0	;
	2	209	999999.0	0.0	0.0	0.0	4.0	0.0	0.0	0.0	;
	2	219	999999.0	0.0	0.0	0.0	4.0	0.0	0.0	0.0	;
	2	221	999999.0	0.0	0.0	0.0	4.0	0.0	0.0	0.0	;
	204	2	999999.0	0.0	0.0	0.0	4.0	0.0	0.0	0.0	;
	204	205	2400.0	418.0	16.0	1.0	4.0	0.0	0.0	1.0	;
	204	209	900.0	264.0	7.333333	1.0	4.0	0.0	0.0	1.0	;
	204	219	2400.0	188.0	7.0	1.0	4.0	0.0	0.0	1.0	;
	204	223	900.0	130.0	7.666667	1.0	4.0	0.0	0.0	1.0	;
	209	2	999999.0	0.0	0.0	0.0	4.0	0.0	0.0	0.0	;
	209	20	999999.0	0.0	0.0	0.0	4.0	0.0	0.0	0.0	;
	209	215	900.0	368.0	12.0	1.0	4.0	0.0	0.0	1.0	;
	219	2	999999.0	0.0	0.0	0.0	4.0	0.0	0.0	0.0	;
	219	323	2400.0	153.0	6.0	1.0	4.0	0.0	0.0	1.0	;
	221	2	999999.0	0.0	0.0	0.0	4.0	0.0	0.0	0.0	;
	221	222	900.0	8.0	0.666667	1.0	4.0	0.0	0.0	1.0	;
	3	155	999999.0	0.0	0.0	0.0	4.0	0.0	0.0	0.0	;
	3	161	999999.0	0.0	0.0	0.0	4.0	0.0	0.0	0.0	;
	3	195	999999.0	0.0	0.0	0.0	4.0	0.0	0.0	0.0	;
	3	344	999999.0	0.0	0.0	0.0	4.0	0.0	0.0	0.0	;
	155	3	999999.0	0.0	0.0	0.0	4.0	0.0	0.0	0.0	;
	155	16	999999.0	0.0	0.0	0.0	4.0	0.0	0.0	0.0	;
	155	159	2400.0	153.0	5.333333	1.0	4.0	0.0	0.0	1.0	;
	161	3	999999.0	0.0	0.0	0.0	4.0	0.0	0.0	0.0	;
	161	211	2400.0	314.0	9.666667	1.0	4.0	0.0	0.0	1.0	;
	195	3	999999.0	0.0	0.0	0.0	4.0	0.0	0.0	0.0	;
	195	201	900.0	225.0	8.333333	1.0	4.0	0.0	0.0	1.0	;
	344	3	999999.0	0.0	0.0	0.0	4.0	0.0	0.0	0.0	;
	344	155	2400.0	206.0	6.0	1.0	4.0	0.0	0.0	1.0	;
	4	298	999999.0	0.0	0.0	0.0	4.0	0.0	0.0	0.0	;
	4	299	999999.0	0.0	0.0	0.0	4.0	0.0	0.0	0.0	;
	4	303	999999.0	0.0	0.0	0.0	4.0	0.0	0.0	0.0	;
	4	312	999999.0	0.0	0.0	0.0	4.0	0.0	0.0	0.0	;
	298	4	999999.0	0.0	0.0	0.0	4.0	0.0	0.0	0.0	;
	298	299	2400.0	25.0	1.333333	1.0	4.0	0.0	0.0	1.0	;
	298	307	2400.0	23.0	1.0	1.0	4.0	0.0	0.0	1.0	;
	299	4	999999.0	0.0	0.0	0.0	4.0	0.0	0.0	0.0	;
	299	303	2400.0	247.0	8.0	1.0	4.0	0.0	0.0	1.0	;
	299	313	2400.0	14.0	0.333333	1.0	4.0	0.0	0.0	1.0	;
	303	4	999999.0	0.0	0.0	0.0	4.0	0.0	0.0	0.0	;
	303	309	2400.0	48.0	2.0	1.0	4.0	0.0	0.0	1.0	;
	303	312	2400.0	19.0	0.333333	1.0	4.0	0.0	0.0	1.0	;
	312	4	999999.0	0.0	0.0	0.0	4.0	0.0	0.0	0.0	;
	312	303	2400.0	19.0	0.333333	1.0	4.0	0.0	0.0	1.0	;
	312	313	2400.0	248.0	8.333333	1.0	4.0	0.0	0.0	1.0	;
	5	264	999999.0	0.0	0.0	0.0	4.0	0.0	0.0	0.0	;
	5	270	999999.0	0.0	0.0	0.0	4.0	0.0	0.0	0.0	;
	5	272	999999.0	0.0	0.0	0.0	4.0	0.0	0.0	0.0	;
	5	273	999999.0	0.0	0.0	0.0	4.0	0.0	0.0	0.0	;
	264	5	999999.0	0.0	0.0	0.0	4.0	0.0	0.0	0.0	;
	264	270	600.0	138.0	13.333333	1.0	4.0	0.0	0.0	1.0	;
	270	5	999999.0	0.0	0.0	0.0	4.0	0.0	0.0	0.0	;
	270	56	600.0	554.0	26.666667	1.0	4.0	0.0	0.0	1.0	;
	270	272	600.0	13.0	0.666667	1.0	4.0	0.0	0.0	1.0	;
	270	273	2400.0	52.0	1.333333	1.0	4.0	0.0	0.0	1.0	;
	272	5	999999.0	0.0	0.0	0.0	4.0	0.0	0.0	0.0	;
	272	270	600.0	13.0	0.333333	1.0	4.0	0.0	0.0	1.0	;
	272	280	2400.0	177.0	12.333333	1.0	4.0	0.0	0.0	1.0	;
	272	287	600.0	189.0	7.333333	1.0	4.0	0.0	0.0	1.0	;
	273	5	999999.0	0.0	0.0	0.0	4.0	0.0	0.0	0.0	;
	273	262	2400.0	273.0	6.666667	1.0	4.0	0.0	0.0	1.0	;
	6	68	999999.0	0.0	0.0	0.0	4.0	0.0	0.0	0.0	;
	6	69	999999.0	0.0	0.0	0.0	4.0	0.0	0.0	0.0	;
	6	70	999999.0	0.0	0.0	0.0	4.0	0.0	0.0	0.0	;
	6	71	999999.0	0.0	0.0	0.0	4.0	0.0	0.0	0.0	;
	68	6	999999.0	0.0	0.0	0.0	4.0	0.0	0.0	0.0	;
	68	151	2400.0	159.0	5.333333	1.0	4.0	0.0	0.0	1.0	;
	69	6	999999.0	0.0	0.0	0.0	4.0	0.0	0.0	0.0	;
	69	68	2400.0	108.0	3.0	1.0	4.0	0.0	0.0	1.0	;
	70	6	999999.0	0.0	0.0	0.0	4.0	0.0	0.0	0.0	;
	70	71	2400.0	102.0	4.0	1.0	4.0	0.0	0.0	1.0	;
	71	6	999999.0	0.0	0.0	0.0	4.0	0.0	0.0	0.0	;
	71	69	2400.0	196.0	7.333333	1.0	4.0	0.0	0.0	1.0	;
	71	196	2400.0	450.0	20.333333	1.0	4.0	0.0	0.0	1.0	;
	71	288	600.0	282.0	8.0	1.0	4.0	0.0	0.0	1.0	;
	7	86	999999.0	0.0	0.0	0.0	4.0	0.0	0.0	0.0	;
	7	87	999999.0	0.0	0.0	0.0	4.0	0.0	0.0	0.0	;
	7	88	999999.0	0.0	0.0	0.0	4.0	0.0	0.0	0.0	;
	7	89	999999.0	0.0	0.0	0.0	4.0	0.0	0.0	0.0	;
	86	7	999999.0	0.0	0.0	0.0	4.0	0.0	0.0	0.0	;
	86	36	2800.0	111.0	6.333333	1.0	4.0	0.0	0.0	1.0	;
	86	87	2800.0	100.0	3.0	1.0	4.0	0.0	0.0	1.0	;
	86	233	600.0	32.0	0.666667	1.0	4.0	0.0	0.0	1.0	;
	87	7	999999.0	0.0	0.0	0.0	4.0	0.0	0.0	0.0	;
	87	86	2800.0	100.0	4.666667	1.0	4.0	0.0	0.0	1.0	;
	87	89	2800.0	166.0	5.333333	1.0	4.0	0.0	0.0	1.0	;
	88	7	999999.0	0.0	0.0	0.0	4.0	0.0	0.0	0.0	;
	88	86	600.0	184.0	6.0	1.0	4.0	0.0	0.0	1.0	;
	88	89	600.0	119.0	6.0	1.0	4.0	0.0	0.0	1.0	;
	89	7	999999.0	0.0	0.0	0.0	4.0	0.0	0.0	0.0	;
	89	87	2800.0	166.0	6.0	1.0	4.0	0.0	0.0	1.0	;
	89	88	600.0	119.0	3.666667	1.0	4.0	0.0	0.0	1.0	;
	89	93	2800.0	190.0	9.333333	1.0	4.0	0.0	0.0	1.0	;
	8	99	999999.0	0.0	0.0	0.0	4.0	0.0	0.0	0.0	;
	8	117	999999.0	0.0	0.0	0.0	4.0	0.0	0.0	0.0	;
	8	121	999999.0	0.0	0.0	0.0	4.0	0.0	0.0	0.0	;
	8	134	999999.0	0.0	0.0	0.0	4.0	0.0	0.0	0.0	;
	99	8	999999.0	0.0	0.0	0.0	4.0	0.0	0.0	0.0	;
	99	97	900.0	177.0	4.333333	1.0	4.0	0.0	0.0	1.0	;
	99	247	900.0	417.0	15.0	1.0	4.0	0.0	0.0	1.0	;
	117	8	999999.0	0.0	0.0	0.0	4.0	0.0	0.0	0.0	;
	117	99	2800.0	27.0	1.666667	1.0	4.0	0.0	0.0	1.0	;
	117	118	2400.0	493.0	14.0	1.0	4.0	0.0	0.0	1.0	;
	121	8	999999.0	0.0	0.0	0.0	4.0	0.0	0.0	0.0	;
	121	128	2400.0	217.0	10.0	1.0	4.0	0.0	0.0	1.0	;
	134	8	999999.0	0.0	0.0	0.0	4.0	0.0	0.0	0.0	;
	134	130	2400.0	220.0	14.333333	1.0	4.0	0.0	0.0	1.0	;
	9	83	999999.0	0.0	0.0	0.0	4.0	0.0	0.0	0.0	;
	9	84	999999.0	0.0	0.0	0.0	4.0	0.0	0.0	0.0	;
	9	95	999999.0	0.0	0.0	0.0	4.0	0.0	0.0	0.0	;
	9	97	999999.0	0.0	0.0	0.0	4.0	0.0	0.0	0.0	;
	83	9	999999.0	0.0	0.0	0.0	4.0	0.0	0.0	0.0	;
	83	84	2400.0	40.0	1.666667	1.0	4.0	0.0	0.0	1.0	;
	84	9	999999.0	0.0	0.0	0.0	4.0	0.0	0.0	0.0	;
	84	95	900.0	38.0	2.333333	1.0	4.0	0.0	0.0	1.0	;
	84	97	2400.0	14.0	0.333333	1.0	4.0	0.0	0.0	1.0	;
	95	9	999999.0	0.0	0.0	0.0	4.0	0.0	0.0	0.0	;
	95	99	900.0	144.0	10.333333	1.0	4.0	0.0	0.0	1.0	;
	97	9	999999.0	0.0	0.0	0.0	4.0	0.0	0.0	0.0	;
	97	98	2800.0	93.0	7.0	1.0	4.0	0.0	0.0	1.0	;
	10	172	999999.0	0.0	0.0	0.0	4.0	0.0	0.0	0.0	;
	10	175	999999.0	0.0	0.0	0.0	4.0	0.0	0.0	0.0	;
	10	238	999999.0	0.0	0.0	0.0	4.0	0.0	0.0	0.0	;
	10	242	999999.0	0.0	0.0	0.0	4.0	0.0	0.0	0.0	;
	172	10	999999.0	0.0	0.0	0.0	4.0	0.0	0.0	0.0	;
	172	183	900.0	23.0	0.666667	1.0	4.0	0.0	0.0	1.0	;
	175	10	999999.0	0.0	0.0	0.0	4.0	0.0	0.0	0.0	;
	175	173	900.0	76.0	2.333333	1.0	4.0	0.0	0.0	1.0	;
	175	182	900.0	19.0	1.333333	1.0	4.0	0.0	0.0	1.0	;
	238	10	999999.0	0.0	0.0	0.0	4.0	0.0	0.0	0.0	;
	238	24	999999.0	0.0	0.0	0.0	4.0	0.0	0.0	0.0	;
	238	239	2400.0	56.0	2.0	1.0	4.0	0.0	0.0	1.0	;
	238	242	2400.0	17.0	0.333333	1.0	4.0	0.0	0.0	1.0	;
	242	10	999999.0	0.0	0.0	0.0	4.0	0.0	0.0	0.0	;
	242	24	999999.0	0.0	0.0	0.0	4.0	0.0	0.0	0.0	;
	242	238	2400.0	17.0	0.666667	1.0	4.0	0.0	0.0	1.0	;
	242	246	2400.0	187.0	6.333333	1.0	4.0	0.0	0.0	1.0	;
	11	27	999999.0	0.0	0.0	0.0	4.0	0.0	0.0	0.0	;
	11	186	999999.0	0.0	0.0	0.0	4.0	0.0	0.0	0.0	;
	11	191	999999.0	0.0	0.0	0.0	4.0	0.0	0.0	0.0	;
	11	192	999999.0	0.0	0.0	0.0	4.0	0.0	0.0	0.0	;
	27	11	999999.0	0.0	0.0	0.0	4.0	0.0	0.0	0.0	;
	27	28	2800.0	25.0	3.666667	1.0	4.0	0.0	0.0	1.0	;
	27	188	2800.0	24.0	1.0	1.0	4.0	0.0	0.0	1.0	;
	186	11	999999.0	0.0	0.0	0.0	4.0	0.0	0.0	0.0	;
	186	28	2800.0	121.0	10.0	1.0	4.0	0.0	0.0	1.0	;
	191	11	999999.0	0.0	0.0	0.0	4.0	0.0	0.0	0.0	;
	191	79	2800.0	16.0	1.0	1.0	4.0	0.0	0.0	1.0	;
	192	11	999999.0	0.0	0.0	0.0	4.0	0.0	0.0	0.0	;
	192	191	2800.0	111.0	4.333333	1.0	4.0	0.0	0.0	1.0	;
	12	37	999999.0	0.0	0.0	0.0	4.0	0.0	0.0	0.0	;
	12	38	999999.0	0.0	0.0	0.0	4.0	0.0	0.0	0.0	;
	12	64	999999.0	0.0	0.0	0.0	4.0	0.0	0.0	0.0	;
	12	65	999999.0	0.0	0.0	0.0	4.0	0.0	0.0	0.0	;
	37	12	999999.0	0.0	0.0	0.0	4.0	0.0	0.0	0.0	;
	37	38	2800.0	132.0	3.666667	1.0	4.0	0.0	0.0	1.0	;
	38	12	999999.0	0.0	0.0	0.0	4.0	0.0	0.0	0.0	;
	38	29	2800.0	88.0	4.666667	1.0	4.0	0.0	0.0	1.0	;
	64	12	999999.0	0.0	0.0	0.0	4.0	0.0	0.0	0.0	;
	64	65	900.0	160.0	4.0	1.0	4.0	0.0	0.0	1.0	;
	65	12	999999.0	0.0	0.0	0.0	4.0	0.0	0.0	0.0	;
	65	37	2800.0	73.0	2.333333	1.0	4.0	0.0	0.0	1.0	;
	65	63	2800.0	418.0	22.333333	1.0	4.0	0.0	0.0	1.0	;
	65	190	900.0	658.0	31.0	1.0	4.0	0.0	0.0	1.0	;
	65	248	900.0	286.0	13.333333	1.0	4.0	0.0	0.0	1.0	;
	13	205	999999.0	0.0	0.0	0.0	4.0	0.0	0.0	0.0	;
	13	206	999999.0	0.0	0.0	0.0	4.0	0.0	0.0	0.0	;
	13	226	999999.0	0.0	0.0	0.0	4.0	0.0	0.0	0.0	;
	13	315	999999.0	0.0	0.0	0.0	4.0	0.0	0.0	0.0	;
	205	13	999999.0	0.0	0.0	0.0	4.0	0.0	0.0	0.0	;
	205	21	999999.0	0.0	0.0	0.0	4.0	0.0	0.0	0.0	;
	205	204	2400.0	418.0	14.666667	1.0	4.0	0.0	0.0	1.0	;
	205	226	2400.0	203.0	7.666667	1.0	4.0	0.0	0.0	1.0	;
	206	13	999999.0	0.0	0.0	0.0	4.0	0.0	0.0	0.0	;
	206	25	999999.0	0.0	0.0	0.0	4.0	0.0	0.0	0.0	;
	206	218	900.0	406.0	11.0	1.0	4.0	0.0	0.0	1.0	;
	226	13	999999.0	0.0	0.0	0.0	4.0	0.0	0.0	0.0	;
	226	205	2400.0	203.0	8.0	1.0	4.0	0.0	0.0	1.0	;
	226	206	900.0	257.0	9.0	1.0	4.0	0.0	0.0	1.0	;
	226	314	900.0	433.0	13.0	1.0	4.0	0.0	0.0	1.0	;
	315	13	999999.0	0.0	0.0	0.0	4.0	0.0	0.0	0.0	;
	315	21	999999.0	0.0	0.0	0.0	4.0	0.0	0.0	0.0	;
	315	226	900.0	228.0	14.333333	1.0	4.0	0.0	0.0	1.0	;
	14	255	999999.0	0.0	0.0	0.0	4.0	0.0	0.0	0.0	;
	14	256	999999.0	0.0	0.0	0.0	4.0	0.0	0.0	0.0	;
	14	259	999999.0	0.0	0.0	0.0	4.0	0.0	0.0	0.0	;
	14	260	999999.0	0.0	0.0	0.0	4.0	0.0	0.0	0.0	;
	255	14	999999.0	0.0	0.0	0.0	4.0	0.0	0.0	0.0	;
	255	256	900.0	16.0	0.333333	1.0	4.0	0.0	0.0	1.0	;
	255	267	2400.0	132.0	4.333333	1.0	4.0	0.0	0.0	1.0	;
	256	14	999999.0	0.0	0.0	0.0	4.0	0.0	0.0	0.0	;
	256	261	2400.0	17.0	0.666667	1.0	4.0	0.0	0.0	1.0	;
	259	14	999999.0	0.0	0.0	0.0	4.0	0.0	0.0	0.0	;
	259	255	2400.0	19.0	0.666667	1.0	4.0	0.0	0.0	1.0	;
	259	268	900.0	180.0	7.0	1.0	4.0	0.0	0.0	1.0	;
	260	14	999999.0	0.0	0.0	0.0	4.0	0.0	0.0	0.0	;
	260	255	900.0	108.0	10.666667	1.0	4.0	0.0	0.0	1.0	;
	15	316	999999.0	0.0	0.0	0.0	4.0	0.0	0.0	0.0	;
	15	317	999999.0	0.0	0.0	0.0	4.0	0.0	0.0	0.0	;
	15	318	999999.0	0.0	0.0	0.0	4.0	0.0	0.0	0.0	;
	15	321	999999.0	0.0	0.0	0.0	4.0	0.0	0.0	0.0	;
	316	15	999999.0	0.0	0.0	0.0	4.0	0.0	0.0	0.0	;
	316	279	2400.0	125.0	5.0	1.0	4.0	0.0	0.0	1.0	;
	316	318	2400.0	157.0	4.0	1.0	4.0	0.0	0.0	1.0	;
	317	15	999999.0	0.0	0.0	0.0	4.0	0.0	0.0	0.0	;
	317	316	2400.0	154.0	3.333333	1.0	4.0	0.0	0.0	1.0	;
	318	15	999999.0	0.0	0.0	0.0	4.0	0.0	0.0	0.0	;
	318	202	2400.0	480.0	22.0	1.0	4.0	0.0	0.0	1.0	;
	321	15	999999.0	0.0	0.0	0.0	4.0	0.0	0.0	0.0	;
	321	317	2400.0	338.0	11.333333	1.0	4.0	0.0	0.0	1.0	;
	16	155	999999.0	0.0	0.0	0.0	4.0	0.0	0.0	0.0	;
	16	277	999999.0	0.0	0.0	0.0	4.0	0.0	0.0	0.0	;
	16	282	999999.0	0.0	0.0	0.0	4.0	0.0	0.0	0.0	;
	16	285	999999.0	0.0	0.0	0.0	4.0	0.0	0.0	0.0	;
	277	16	999999.0	0.0	0.0	0.0	4.0	0.0	0.0	0.0	;
	277	196	2400.0	238.0	10.333333	1.0	4.0	0.0	0.0	1.0	;
	282	16	999999.0	0.0	0.0	0.0	4.0	0.0	0.0	0.0	;
	282	289	2400.0	389.0	9.666667	1.0	4.0	0.0	0.0	1.0	;
	285	16	999999.0	0.0	0.0	0.0	4.0	0.0	0.0	0.0	;
	285	277	2400.0	293.0	7.0	1.0	4.0	0.0	0.0	1.0	;
	17	140	999999.0	0.0	0.0	0.0	4.0	0.0	0.0	0.0	;
	17	142	999999.0	0.0	0.0	0.0	4.0	0.0	0.0	0.0	;
	17	149	999999.0	0.0	0.0	0.0	4.0	0.0	0.0	0.0	;
	17	151	999999.0	0.0	0.0	0.0	4.0	0.0	0.0	0.0	;
	140	17	999999.0	0.0	0.0	0.0	4.0	0.0	0.0	0.0	;
	140	142	2400.0	15.0	1.0	1.0	4.0	0.0	0.0	1.0	;
	140	149	2400.0	40.0	1.333333	1.0	4.0	0.0	0.0	1.0	;
	142	17	999999.0	0.0	0.0	0.0	4.0	0.0	0.0	0.0	;
	142	143	2400.0	22.0	0.333333	1.0	4.0	0.0	0.0	1.0	;
	142	145	2800.0	166.0	6.333333	1.0	4.0	0.0	0.0	1.0	;
	149	17	999999.0	0.0	0.0	0.0	4.0	0.0	0.0	0.0	;
	149	142	2400.0	43.0	4.333333	1.0	4.0	0.0	0.0	1.0	;
	149	158	2400.0	397.0	11.666667	1.0	4.0	0.0	0.0	1.0	;
	151	17	999999.0	0.0	0.0	0.0	4.0	0.0	0.0	0.0	;
	151	140	2400.0	40.0	4.666667	1.0	4.0	0.0	0.0	1.0	;
	151	144	2400.0	21.0	0.333333	1.0	4.0	0.0	0.0	1.0	;
	18	145	999999.0	0.0	0.0	0.0	4.0	0.0	0.0	0.0	;
	18	146	999999.0	0.0	0.0	0.0	4.0	0.0	0.0	0.0	;
	18	156	999999.0	0.0	0.0	0.0	4.0	0.0	0.0	0.0	;
	18	157	999999.0	0.0	0.0	0.0	4.0	0.0	0.0	0.0	;
	145	18	999999.0	0.0	0.0	0.0	4.0	0.0	0.0	0.0	;
	145	146	2400.0	24.0	2.0	1.0	4.0	0.0	0.0	1.0	;
	145	153	2400.0	427.0	12.666667	1.0	4.0	0.0	0.0	1.0	;
	146	18	999999.0	0.0	0.0	0.0	4.0	0.0	0.0	0.0	;
	146	143	2400.0	167.0	8.333333	1.0	4.0	0.0	0.0	1.0	;
	146	145	2400.0	24.0	0.666667	1.0	4.0	0.0	0.0	1.0	;
	146	276	2400.0	71.0	2.666667	1.0	4.0	0.0	0.0	1.0	;
	156	18	999999.0	0.0	0.0	0.0	4.0	0.0	0.0	0.0	;
	156	157	2400.0	162.0	5.0	1.0	4.0	0.0	0.0	1.0	;
	157	18	999999.0	0.0	0.0	0.0	4.0	0.0	0.0	0.0	;
	157	146	2400.0	75.0	8.0	1.0	4.0	0.0	0.0	1.0	;
	157	275	2400.0	20.0	0.333333	1.0	4.0	0.0	0.0	1.0	;
	19	46	999999.0	0.0	0.0	0.0	4.0	0.0	0.0	0.0	;
	19	49	999999.0	0.0	0.0	0.0	4.0	0.0	0.0	0.0	;
	19	332	999999.0	0.0	0.0	0.0	4.0	0.0	0.0	0.0	;
	19	335	999999.0	0.0	0.0	0.0	4.0	0.0	0.0	0.0	;
	46	19	999999.0	0.0	0.0	0.0	4.0	0.0	0.0	0.0	;
	46	47	2800.0	45.0	1.333333	1.0	4.0	0.0	0.0	1.0	;
	49	19	999999.0	0.0	0.0	0.0	4.0	0.0	0.0	0.0	;
	49	46	2800.0	14.0	0.333333	1.0	4.0	0.0	0.0	1.0	;
	49	332	2800.0	255.0	6.0	1.0	4.0	0.0	0.0	1.0	;
	332	19	999999.0	0.0	0.0	0.0	4.0	0.0	0.0	0.0	;
	332	335	2800.0	12.0	0.333333	1.0	4.0	0.0	0.0	1.0	;
	332	336	2800.0	358.0	7.666667	1.0	4.0	0.0	0.0	1.0	;
	335	19	999999.0	0.0	0.0	0.0	4.0	0.0	0.0	0.0	;
	335	46	6000.0	256.0	20.0	1.0	4.0	0.0	0.0	1.0	;
	335	332	2800.0	12.0	0.333333	1.0	4.0	0.0	0.0	1.0	;
	20	209	999999.0	0.0	0.0	0.0	4.0	0.0	0.0	0.0	;
	20	212	999999.0	0.0	0.0	0.0	4.0	0.0	0.0	0.0	;
	20	215	999999.0	0.0	0.0	0.0	4.0	0.0	0.0	0.0	;
	20	322	999999.0	0.0	0.0	0.0	4.0	0.0	0.0	0.0	;
	212	20	999999.0	0.0	0.0	0.0	4.0	0.0	0.0	0.0	;
	212	215	600.0	245.0	8.666667	1.0	4.0	0.0	0.0	1.0	;
	215	20	999999.0	0.0	0.0	0.0	4.0	0.0	0.0	0.0	;
	215	204	900.0	632.0	22.0	1.0	4.0	0.0	0.0	1.0	;
	215	217	900.0	166.0	5.0	1.0	4.0	0.0	0.0	1.0	;
	215	218	600.0	323.0	13.0	1.0	4.0	0.0	0.0	1.0	;
	215	324	600.0	291.0	14.333333	1.0	4.0	0.0	0.0	1.0	;
	322	20	999999.0	0.0	0.0	0.0	4.0	0.0	0.0	0.0	;
	322	324	900.0	384.0	11.666667	1.0	4.0	0.0	0.0	1.0	;
	21	205	999999.0	0.0	0.0	0.0	4.0	0.0	0.0	0.0	;
	21	314	999999.0	0.0	0.0	0.0	4.0	0.0	0.0	0.0	;
	21	315	999999.0	0.0	0.0	0.0	4.0	0.0	0.0	0.0	;
	21	347	999999.0	0.0	0.0	0.0	4.0	0.0	0.0	0.0	;
	314	21	999999.0	0.0	0.0	0.0	4.0	0.0	0.0	0.0	;
	314	346	900.0	464.0	12.666667	1.0	4.0	0.0	0.0	1.0	;
	347	21	999999.0	0.0	0.0	0.0	4.0	0.0	0.0	0.0	;
	347	315	900.0	281.0	7.333333	1.0	4.0	0.0	0.0	1.0	;
	22	350	999999.0	0.0	0.0	0.0	4.0	0.0	0.0	0.0	;
	22	353	999999.0	0.0	0.0	0.0	4.0	0.0	0.0	0.0	;
	22	354	999999.0	0.0	0.0	0.0	4.0	0.0	0.0	0.0	;
	22	355	999999.0	0.0	0.0	0.0	4.0	0.0	0.0	0.0	;
	350	22	999999.0	0.0	0.0	0.0	4.0	0.0	0.0	0.0	;
	350	23	999999.0	0.0	0.0	0.0	4.0	0.0	0.0	0.0	;
	350	351	900.0	181.0	5.666667	1.0	4.0	0.0	0.0	1.0	;
	353	22	999999.0	0.0	0.0	0.0	4.0	0.0	0.0	0.0	;
	353	310	900.0	171.0	7.666667	1.0	4.0	0.0	0.0	1.0	;
	353	354	900.0	15.0	0.333333	1.0	4.0	0.0	0.0	1.0	;
	354	22	999999.0	0.0	0.0	0.0	4.0	0.0	0.0	0.0	;
	354	353	900.0	15.0	1.666667	1.0	4.0	0.0	0.0	1.0	;
	354	357	900.0	428.0	13.0	1.0	4.0	0.0	0.0	1.0	;
	355	22	999999.0	0.0	0.0	0.0	4.0	0.0	0.0	0.0	;
	355	353	900.0	137.0	3.666667	1.0	4.0	0.0	0.0	1.0	;
	23	166	999999.0	0.0	0.0	0.0	4.0	0.0	0.0	0.0	;
	23	349	999999.0	0.0	0.0	0.0	4.0	0.0	0.0	0.0	;
	23	350	999999.0	0.0	0.0	0.0	4.0	0.0	0.0	0.0	;
	23	351	999999.0	0.0	0.0	0.0	4.0	0.0	0.0	0.0	;
	166	23	999999.0	0.0	0.0	0.0	4.0	0.0	0.0	0.0	;
	166	165	600.0	1001.0	44.333333	1.0	4.0	0.0	0.0	1.0	;
	349	23	999999.0	0.0	0.0	0.0	4.0	0.0	0.0	0.0	;
	349	355	900.0	290.0	9.0	1.0	4.0	0.0	0.0	1.0	;
	349	357	900.0	18.0	0.333333	1.0	4.0	0.0	0.0	1.0	;
	351	23	999999.0	0.0	0.0	0.0	4.0	0.0	0.0	0.0	;
	351	349	900.0	73.0	2.0	1.0	4.0	0.0	0.0	1.0	;
	351	352	900.0	23.0	0.666667	1.0	4.0	0.0	0.0	1.0	;
	351	356	900.0	294.0	9.666667	1.0	4.0	0.0	0.0	1.0	;
	24	238	999999.0	0.0	0.0	0.0	4.0	0.0	0.0	0.0	;
	24	239	999999.0	0.0	0.0	0.0	4.0	0.0	0.0	0.0	;
	24	242	999999.0	0.0	0.0	0.0	4.0	0.0	0.0	0.0	;
	24	243	999999.0	0.0	0.0	0.0	4.0	0.0	0.0	0.0	;
	239	24	999999.0	0.0	0.0	0.0	4.0	0.0	0.0	0.0	;
	239	240	2400.0	103.0	8.666667	1.0	4.0	0.0	0.0	1.0	;
	239	243	2400.0	16.0	0.333333	1.0	4.0	0.0	0.0	1.0	;
	243	24	999999.0	0.0	0.0	0.0	4.0	0.0	0.0	0.0	;
	243	239	2400.0	16.0	0.333333	1.0	4.0	0.0	0.0	1.0	;
	243	242	2400.0	56.0	1.666667	1.0	4.0	0.0	0.0	1.0	;
	25	206	999999.0	0.0	0.0	0.0	4.0	0.0	0.0	0.0	;
	25	214	999999.0	0.0	0.0	0.0	4.0	0.0	0.0	0.0	;
	25	218	999999.0	0.0	0.0	0.0	4.0	0.0	0.0	0.0	;
	214	25	999999.0	0.0	0.0	0.0	4.0	0.0	0.0	0.0	;
	214	215	600.0	291.0	11.0	1.0	4.0	0.0	0.0	1.0	;
	218	25	999999.0	0.0	0.0	0.0	4.0	0.0	0.0	0.0	;
	218	214	600.0	32.0	0.666667	1.0	4.0	0.0	0.0	1.0	;
	218	216	900.0	164.0	5.333333	1.0	4.0	0.0	0.0	1.0	;
	218	226	900.0	663.0	28.0	1.0	4.0	0.0	0.0	1.0	;
	26	58	999999.0	0.0	0.0	0.0	4.0	0.0	0.0	0.0	;
	26	59	999999.0	0.0	0.0	0.0	4.0	0.0	0.0	0.0	;
	26	60	999999.0	0.0	0.0	0.0	4.0	0.0	0.0	0.0	;
	26	61	999999.0	0.0	0.0	0.0	4.0	0.0	0.0	0.0	;
	58	26	999999.0	0.0	0.0	0.0	4.0	0.0	0.0	0.0	;
	58	59	2800.0	8.0	0.333333	1.0	4.0	0.0	0.0	1.0	;
	59	26	999999.0	0.0	0.0	0.0	4.0	0.0	0.0	0.0	;
	59	171	2400.0	42.0	1.0	1.0	4.0	0.0	0.0	1.0	;
	60	26	999999.0	0.0	0.0	0.0	4.0	0.0	0.0	0.0	;
	60	61	2800.0	8.0	0.666667	1.0	4.0	0.0	0.0	1.0	;
	61	26	999999.0	0.0	0.0	0.0	4.0	0.0	0.0	0.0	;
	61	66	2800.0	30.0	6.0	1.0	4.0	0.0	0.0	1.0	;
	28	32	2800.0	54.0	3.666667	1.0	4.0	0.0	0.0	1.0	;
	28	109	2400.0	394.0	10.0	1.0	4.0	0.0	0.0	1.0	;
	188	192	2800.0	93.0	2.666667	1.0	4.0	0.0	0.0	1.0	;
	32	33	2800.0	24.0	5.333333	1.0	4.0	0.0	0.0	1.0	;
	32	40	2800.0	61.0	1.666667	1.0	4.0	0.0	0.0	1.0	;
	109	108	600.0	50.0	2.333333	1.0	4.0	0.0	0.0	1.0	;
	109	111	600.0	468.0	11.666667	1.0	4.0	0.0	0.0	1.0	;
	109	134	2400.0	514.0	12.333333	1.0	4.0	0.0	0.0	1.0	;
	29	30	2800.0	33.0	3.0	1.0	4.0	0.0	0.0	1.0	;
	29	40	2800.0	21.0	0.333333	1.0	4.0	0.0	0.0	1.0	;
	30	33	2800.0	35.0	7.0	1.0	4.0	0.0	0.0	1.0	;
	30	189	2800.0	48.0	11.333333	1.0	4.0	0.0	0.0	1.0	;
	40	29	2800.0	21.0	0.333333	1.0	4.0	0.0	0.0	1.0	;
	40	41	2800.0	82.0	2.333333	1.0	4.0	0.0	0.0	1.0	;
	33	27	2800.0	55.0	3.0	1.0	4.0	0.0	0.0	1.0	;
	33	189	2800.0	28.0	2.0	1.0	4.0	0.0	0.0	1.0	;
	189	190	2800.0	385.0	10.0	1.0	4.0	0.0	0.0	1.0	;
	31	34	2800.0	21.0	0.666667	1.0	4.0	0.0	0.0	1.0	;
	34	31	2800.0	21.0	0.333333	1.0	4.0	0.0	0.0	1.0	;
	34	35	2800.0	82.0	3.333333	1.0	4.0	0.0	0.0	1.0	;
	34	359	600.0	327.0	11.0	1.0	4.0	0.0	0.0	1.0	;
	35	39	2800.0	9.0	0.333333	1.0	4.0	0.0	0.0	1.0	;
	35	163	2400.0	28.0	2.0	1.0	4.0	0.0	0.0	1.0	;
	359	34	600.0	327.0	12.333333	1.0	4.0	0.0	0.0	1.0	;
	359	43	2800.0	363.0	14.0	1.0	4.0	0.0	0.0	1.0	;
	359	167	900.0	70.0	3.333333	1.0	4.0	0.0	0.0	1.0	;
	39	36	2800.0	19.0	1.333333	1.0	4.0	0.0	0.0	1.0	;
	163	154	2400.0	15.0	0.333333	1.0	4.0	0.0	0.0	1.0	;
	163	162	2400.0	126.0	3.333333	1.0	4.0	0.0	0.0	1.0	;
	36	31	2800.0	82.0	2.333333	1.0	4.0	0.0	0.0	1.0	;
	36	35	2800.0	20.0	0.333333	1.0	4.0	0.0	0.0	1.0	;
	36	86	2800.0	111.0	3.666667	1.0	4.0	0.0	0.0	1.0	;
	41	65	2800.0	209.0	10.666667	1.0	4.0	0.0	0.0	1.0	;
	42	44	2800.0	315.0	22.0	1.0	4.0	0.0	0.0	1.0	;
	44	43	2400.0	14.0	0.333333	1.0	4.0	0.0	0.0	1.0	;
	44	45	2800.0	43.0	1.333333	1.0	4.0	0.0	0.0	1.0	;
	43	42	2800.0	306.0	6.666667	1.0	4.0	0.0	0.0	1.0	;
	43	44	2400.0	14.0	0.666667	1.0	4.0	0.0	0.0	1.0	;
	43	359	2800.0	363.0	12.666667	1.0	4.0	0.0	0.0	1.0	;
	45	43	2800.0	51.0	6.333333	1.0	4.0	0.0	0.0	1.0	;
	45	67	2800.0	1036.0	27.666667	1.0	4.0	0.0	0.0	1.0	;
	67	58	2800.0	45.0	2.0	1.0	4.0	0.0	0.0	1.0	;
	47	52	2800.0	22.0	0.666667	1.0	4.0	0.0	0.0	1.0	;
	47	141	2400.0	74.0	2.0	1.0	4.0	0.0	0.0	1.0	;
	52	53	2800.0	112.0	3.666667	1.0	4.0	0.0	0.0	1.0	;
	141	150	2400.0	199.0	5.0	1.0	4.0	0.0	0.0	1.0	;
	141	152	2400.0	22.0	0.333333	1.0	4.0	0.0	0.0	1.0	;
	48	49	2800.0	106.0	3.0	1.0	4.0	0.0	0.0	1.0	;
	50	51	2800.0	85.0	3.333333	1.0	4.0	0.0	0.0	1.0	;
	51	48	2800.0	18.0	0.666667	1.0	4.0	0.0	0.0	1.0	;
	51	138	2400.0	201.0	4.666667	1.0	4.0	0.0	0.0	1.0	;
	138	127	2400.0	258.0	9.0	1.0	4.0	0.0	0.0	1.0	;
	53	54	2800.0	24.0	0.666667	1.0	4.0	0.0	0.0	1.0	;
	53	263	2400.0	252.0	6.0	1.0	4.0	0.0	0.0	1.0	;
	54	57	2800.0	34.0	1.666667	1.0	4.0	0.0	0.0	1.0	;
	263	262	2400.0	20.0	0.333333	1.0	4.0	0.0	0.0	1.0	;
	263	272	2400.0	325.0	13.333333	1.0	4.0	0.0	0.0	1.0	;
	57	50	2800.0	23.0	2.0	1.0	4.0	0.0	0.0	1.0	;
	57	56	2800.0	748.0	20.333333	1.0	4.0	0.0	0.0	1.0	;
	55	50	2800.0	747.0	31.333333	1.0	4.0	0.0	0.0	1.0	;
	55	56	600.0	17.0	0.333333	1.0	4.0	0.0	0.0	1.0	;
	56	55	600.0	17.0	0.333333	1.0	4.0	0.0	0.0	1.0	;
	56	264	600.0	416.0	13.333333	1.0	4.0	0.0	0.0	1.0	;
	171	164	2400.0	232.0	16.333333	1.0	4.0	0.0	0.0	1.0	;
	66	45	2800.0	1059.0	30.666667	1.0	4.0	0.0	0.0	1.0	;
	62	60	2800.0	23.0	1.0	1.0	4.0	0.0	0.0	1.0	;
	62	171	2400.0	43.0	1.666667	1.0	4.0	0.0	0.0	1.0	;
	63	65	2800.0	418.0	19.333333	1.0	4.0	0.0	0.0	1.0	;
	63	94	900.0	542.0	34.666667	1.0	4.0	0.0	0.0	1.0	;
	94	90	900.0	175.0	9.0	1.0	4.0	0.0	0.0	1.0	;
	190	64	900.0	498.0	12.333333	1.0	4.0	0.0	0.0	1.0	;
	248	65	900.0	286.0	17.0	1.0	4.0	0.0	0.0	1.0	;
	248	108	600.0	186.0	11.333333	1.0	4.0	0.0	0.0	1.0	;
	248	250	900.0	311.0	12.0	1.0	4.0	0.0	0.0	1.0	;
	196	71	2400.0	450.0	16.0	1.0	4.0	0.0	0.0	1.0	;
	196	197	2400.0	98.0	4.666667	1.0	4.0	0.0	0.0	1.0	;
	196	200	2400.0	20.0	3.0	1.0	4.0	0.0	0.0	1.0	;
	288	71	600.0	282.0	16.333333	1.0	4.0	0.0	0.0	1.0	;
	288	286	600.0	97.0	3.0	1.0	4.0	0.0	0.0	1.0	;
	72	73	2800.0	60.0	2.0	1.0	4.0	0.0	0.0	1.0	;
	72	74	2800.0	22.0	0.333333	1.0	4.0	0.0	0.0	1.0	;
	73	74	2800.0	68.0	1.666667	1.0	4.0	0.0	0.0	1.0	;
	73	78	2800.0	43.0	1.333333	1.0	4.0	0.0	0.0	1.0	;
	73	232	600.0	234.0	9.0	1.0	4.0	0.0	0.0	1.0	;
	74	72	2800.0	22.0	0.333333	1.0	4.0	0.0	0.0	1.0	;
	74	80	2800.0	65.0	2.666667	1.0	4.0	0.0	0.0	1.0	;
	232	234	600.0	113.0	4.666667	1.0	4.0	0.0	0.0	1.0	;
	80	75	600.0	321.0	18.0	1.0	4.0	0.0	0.0	1.0	;
	80	187	2800.0	17.0	0.666667	1.0	4.0	0.0	0.0	1.0	;
	75	76	2400.0	169.0	4.333333	1.0	4.0	0.0	0.0	1.0	;
	75	115	2400.0	18.0	0.333333	1.0	4.0	0.0	0.0	1.0	;
	76	75	2400.0	169.0	7.666667	1.0	4.0	0.0	0.0	1.0	;
	76	77	2800.0	160.0	3.333333	1.0	4.0	0.0	0.0	1.0	;
	76	339	2800.0	522.0	15.666667	1.0	4.0	0.0	0.0	1.0	;
	115	75	2400.0	18.0	0.333333	1.0	4.0	0.0	0.0	1.0	;
	115	110	600.0	190.0	6.666667	1.0	4.0	0.0	0.0	1.0	;
	115	111	2400.0	290.0	9.666667	1.0	4.0	0.0	0.0	1.0	;
	339	330	2800.0	18.0	1.0	1.0	4.0	0.0	0.0	1.0	;
	79	72	2800.0	62.0	2.333333	1.0	4.0	0.0	0.0	1.0	;
	79	80	600.0	23.0	3.0	1.0	4.0	0.0	0.0	1.0	;
	187	186	2800.0	120.0	3.333333	1.0	4.0	0.0	0.0	1.0	;
	187	191	600.0	23.0	0.666667	1.0	4.0	0.0	0.0	1.0	;
	81	82	900.0	74.0	2.0	1.0	4.0	0.0	0.0	1.0	;
	81	92	900.0	21.0	0.666667	1.0	4.0	0.0	0.0	1.0	;
	82	85	900.0	49.0	9.0	1.0	4.0	0.0	0.0	1.0	;
	82	96	900.0	23.0	0.666667	1.0	4.0	0.0	0.0	1.0	;
	92	81	900.0	21.0	0.666667	1.0	4.0	0.0	0.0	1.0	;
	92	91	900.0	100.0	4.666667	1.0	4.0	0.0	0.0	1.0	;
	85	103	2400.0	62.0	1.666667	1.0	4.0	0.0	0.0	1.0	;
	85	125	900.0	31.0	3.0	1.0	4.0	0.0	0.0	1.0	;
	96	82	900.0	23.0	0.666667	1.0	4.0	0.0	0.0	1.0	;
	96	92	900.0	74.0	2.0	1.0	4.0	0.0	0.0	1.0	;
	103	124	2400.0	29.0	0.666667	1.0	4.0	0.0	0.0	1.0	;
	103	137	2400.0	46.0	2.0	1.0	4.0	0.0	0.0	1.0	;
	125	126	2400.0	24.0	0.666667	1.0	4.0	0.0	0.0	1.0	;
	125	177	900.0	60.0	1.666667	1.0	4.0	0.0	0.0	1.0	;
	233	88	600.0	152.0	5.0	1.0	4.0	0.0	0.0	1.0	;
	93	89	2800.0	190.0	8.333333	1.0	4.0	0.0	0.0	1.0	;
	93	101	600.0	244.0	8.666667	1.0	4.0	0.0	0.0	1.0	;
	93	328	2800.0	217.0	11.333333	1.0	4.0	0.0	0.0	1.0	;
	90	81	900.0	89.0	2.666667	1.0	4.0	0.0	0.0	1.0	;
	90	83	2400.0	133.0	3.666667	1.0	4.0	0.0	0.0	1.0	;
	90	91	2400.0	20.0	0.666667	1.0	4.0	0.0	0.0	1.0	;
	91	90	2800.0	20.0	0.666667	1.0	4.0	0.0	0.0	1.0	;
	91	249	900.0	511.0	23.333333	1.0	4.0	0.0	0.0	1.0	;
	249	63	900.0	194.0	18.666667	1.0	4.0	0.0	0.0	1.0	;
	101	147	600.0	841.0	27.666667	1.0	4.0	0.0	0.0	1.0	;
	328	329	2800.0	15.0	0.666667	1.0	4.0	0.0	0.0	1.0	;
	328	338	2800.0	83.0	2.0	1.0	4.0	0.0	0.0	1.0	;
	98	120	2800.0	88.0	2.666667	1.0	4.0	0.0	0.0	1.0	;
	120	116	2800.0	32.0	1.0	1.0	4.0	0.0	0.0	1.0	;
	120	119	2800.0	24.0	1.333333	1.0	4.0	0.0	0.0	1.0	;
	247	248	6000.0	136.0	6.0	1.0	4.0	0.0	0.0	1.0	;
	100	93	600.0	107.0	13.666667	1.0	4.0	0.0	0.0	1.0	;
	147	100	600.0	978.0	27.333333	1.0	4.0	0.0	0.0	1.0	;
	147	148	2400.0	71.0	2.0	1.0	4.0	0.0	0.0	1.0	;
	147	160	2400.0	408.0	12.666667	1.0	4.0	0.0	0.0	1.0	;
	102	85	2800.0	23.0	1.0	1.0	4.0	0.0	0.0	1.0	;
	102	96	900.0	53.0	1.333333	1.0	4.0	0.0	0.0	1.0	;
	124	103	2400.0	29.0	0.666667	1.0	4.0	0.0	0.0	1.0	;
	124	125	2400.0	65.0	3.333333	1.0	4.0	0.0	0.0	1.0	;
	137	106	2800.0	48.0	1.666667	1.0	4.0	0.0	0.0	1.0	;
	137	136	2400.0	32.0	0.666667	1.0	4.0	0.0	0.0	1.0	;
	104	93	600.0	291.0	19.0	1.0	4.0	0.0	0.0	1.0	;
	105	89	600.0	295.0	7.333333	1.0	4.0	0.0	0.0	1.0	;
	106	98	2800.0	25.0	0.666667	1.0	4.0	0.0	0.0	1.0	;
	106	107	2800.0	104.0	3.0	1.0	4.0	0.0	0.0	1.0	;
	107	84	900.0	17.0	0.333333	1.0	4.0	0.0	0.0	1.0	;
	107	90	2400.0	162.0	5.666667	1.0	4.0	0.0	0.0	1.0	;
	108	32	2400.0	387.0	20.333333	1.0	4.0	0.0	0.0	1.0	;
	108	109	600.0	50.0	2.333333	1.0	4.0	0.0	0.0	1.0	;
	111	112	2400.0	114.0	3.666667	1.0	4.0	0.0	0.0	1.0	;
	111	131	2400.0	877.0	34.333333	1.0	4.0	0.0	0.0	1.0	;
	110	187	600.0	134.0	9.333333	1.0	4.0	0.0	0.0	1.0	;
	112	115	2400.0	176.0	18.0	1.0	4.0	0.0	0.0	1.0	;
	131	48	2400.0	461.0	21.0	1.0	4.0	0.0	0.0	1.0	;
	131	127	2400.0	22.0	1.333333	1.0	4.0	0.0	0.0	1.0	;
	113	109	600.0	267.0	6.666667	1.0	4.0	0.0	0.0	1.0	;
	114	111	2400.0	280.0	9.666667	1.0	4.0	0.0	0.0	1.0	;
	116	117	2400.0	79.0	2.0	1.0	4.0	0.0	0.0	1.0	;
	118	108	2400.0	133.0	5.666667	1.0	4.0	0.0	0.0	1.0	;
	119	116	2800.0	18.0	1.0	1.0	4.0	0.0	0.0	1.0	;
	119	123	2400.0	47.0	2.666667	1.0	4.0	0.0	0.0	1.0	;
	123	130	2400.0	54.0	1.333333	1.0	4.0	0.0	0.0	1.0	;
	128	114	2400.0	593.0	17.0	1.0	4.0	0.0	0.0	1.0	;
	128	131	2400.0	21.0	0.666667	1.0	4.0	0.0	0.0	1.0	;
	122	358	2400.0	53.0	2.333333	1.0	4.0	0.0	0.0	1.0	;
	358	119	2800.0	41.0	5.333333	1.0	4.0	0.0	0.0	1.0	;
	358	132	2800.0	27.0	2.0	1.0	4.0	0.0	0.0	1.0	;
	130	121	2400.0	129.0	3.0	1.0	4.0	0.0	0.0	1.0	;
	130	122	2800.0	36.0	2.0	1.0	4.0	0.0	0.0	1.0	;
	126	102	900.0	33.0	1.333333	1.0	4.0	0.0	0.0	1.0	;
	177	176	900.0	21.0	0.666667	1.0	4.0	0.0	0.0	1.0	;
	177	179	900.0	68.0	2.0	1.0	4.0	0.0	0.0	1.0	;
	127	129	2400.0	20.0	0.666667	1.0	4.0	0.0	0.0	1.0	;
	127	293	2400.0	326.0	10.0	1.0	4.0	0.0	0.0	1.0	;
	129	122	2400.0	364.0	10.666667	1.0	4.0	0.0	0.0	1.0	;
	129	128	2400.0	22.0	2.0	1.0	4.0	0.0	0.0	1.0	;
	293	241	2400.0	182.0	5.666667	1.0	4.0	0.0	0.0	1.0	;
	132	133	2800.0	109.0	4.666667	1.0	4.0	0.0	0.0	1.0	;
	133	106	2400.0	38.0	2.666667	1.0	4.0	0.0	0.0	1.0	;
	133	135	2400.0	26.0	1.0	1.0	4.0	0.0	0.0	1.0	;
	135	136	2800.0	33.0	1.666667	1.0	4.0	0.0	0.0	1.0	;
	136	124	2400.0	46.0	1.666667	1.0	4.0	0.0	0.0	1.0	;
	136	137	2400.0	32.0	0.666667	1.0	4.0	0.0	0.0	1.0	;
	139	140	2400.0	22.0	2.333333	1.0	4.0	0.0	0.0	1.0	;
	139	144	2400.0	39.0	1.333333	1.0	4.0	0.0	0.0	1.0	;
	144	70	2400.0	363.0	14.666667	1.0	4.0	0.0	0.0	1.0	;
	144	151	2400.0	21.0	0.333333	1.0	4.0	0.0	0.0	1.0	;
	150	147	2400.0	78.0	3.666667	1.0	4.0	0.0	0.0	1.0	;
	150	148	2400.0	22.0	0.333333	1.0	4.0	0.0	0.0	1.0	;
	152	52	2800.0	75.0	4.666667	1.0	4.0	0.0	0.0	1.0	;
	152	141	2400.0	22.0	0.333333	1.0	4.0	0.0	0.0	1.0	;
	143	139	2400.0	20.0	1.333333	1.0	4.0	0.0	0.0	1.0	;
	143	258	900.0	18.0	1.666667	1.0	4.0	0.0	0.0	1.0	;
	258	352	900.0	335.0	10.333333	1.0	4.0	0.0	0.0	1.0	;
	153	154	2400.0	127.0	5.0	1.0	4.0	0.0	0.0	1.0	;
	153	162	2400.0	19.0	0.333333	1.0	4.0	0.0	0.0	1.0	;
	276	146	2400.0	71.0	5.333333	1.0	4.0	0.0	0.0	1.0	;
	276	167	2400.0	384.0	35.666667	1.0	4.0	0.0	0.0	1.0	;
	148	150	2400.0	22.0	0.333333	1.0	4.0	0.0	0.0	1.0	;
	148	152	2400.0	200.0	11.666667	1.0	4.0	0.0	0.0	1.0	;
	160	149	2400.0	261.0	8.666667	1.0	4.0	0.0	0.0	1.0	;
	158	147	2400.0	272.0	8.0	1.0	4.0	0.0	0.0	1.0	;
	154	39	2800.0	24.0	0.666667	1.0	4.0	0.0	0.0	1.0	;
	154	163	2400.0	15.0	0.333333	1.0	4.0	0.0	0.0	1.0	;
	162	153	2400.0	19.0	0.333333	1.0	4.0	0.0	0.0	1.0	;
	162	156	2400.0	186.0	6.0	1.0	4.0	0.0	0.0	1.0	;
	159	200	2400.0	201.0	12.666667	1.0	4.0	0.0	0.0	1.0	;
	275	157	2400.0	20.0	3.666667	1.0	4.0	0.0	0.0	1.0	;
	275	276	2400.0	27.0	0.666667	1.0	4.0	0.0	0.0	1.0	;
	200	196	2400.0	20.0	1.666667	1.0	4.0	0.0	0.0	1.0	;
	200	229	2400.0	13.0	0.666667	1.0	4.0	0.0	0.0	1.0	;
	200	282	2400.0	145.0	4.0	1.0	4.0	0.0	0.0	1.0	;
	211	210	2800.0	148.0	13.666667	1.0	4.0	0.0	0.0	1.0	;
	164	165	2400.0	238.0	12.0	1.0	4.0	0.0	0.0	1.0	;
	164	168	2400.0	200.0	5.0	1.0	4.0	0.0	0.0	1.0	;
	164	170	600.0	1131.0	40.333333	1.0	4.0	0.0	0.0	1.0	;
	165	164	2400.0	238.0	18.0	1.0	4.0	0.0	0.0	1.0	;
	165	167	600.0	1330.0	53.0	1.0	4.0	0.0	0.0	1.0	;
	165	251	2400.0	81.0	2.333333	1.0	4.0	0.0	0.0	1.0	;
	165	252	900.0	80.0	2.666667	1.0	4.0	0.0	0.0	1.0	;
	168	58	2400.0	75.0	13.0	1.0	4.0	0.0	0.0	1.0	;
	168	66	2400.0	82.0	4.666667	1.0	4.0	0.0	0.0	1.0	;
	167	166	600.0	329.0	11.333333	1.0	4.0	0.0	0.0	1.0	;
	167	274	2400.0	365.0	10.666667	1.0	4.0	0.0	0.0	1.0	;
	167	359	900.0	70.0	3.333333	1.0	4.0	0.0	0.0	1.0	;
	251	165	2400.0	81.0	5.333333	1.0	4.0	0.0	0.0	1.0	;
	251	265	2400.0	162.0	5.666667	1.0	4.0	0.0	0.0	1.0	;
	252	251	900.0	44.0	5.0	1.0	4.0	0.0	0.0	1.0	;
	252	254	900.0	43.0	1.0	1.0	4.0	0.0	0.0	1.0	;
	252	266	900.0	453.0	12.333333	1.0	4.0	0.0	0.0	1.0	;
	274	276	2400.0	19.0	0.666667	1.0	4.0	0.0	0.0	1.0	;
	169	164	600.0	558.0	35.333333	1.0	4.0	0.0	0.0	1.0	;
	183	184	900.0	16.0	0.333333	1.0	4.0	0.0	0.0	1.0	;
	183	292	900.0	87.0	8.333333	1.0	4.0	0.0	0.0	1.0	;
	173	174	900.0	116.0	5.666667	1.0	4.0	0.0	0.0	1.0	;
	174	181	900.0	49.0	2.0	1.0	4.0	0.0	0.0	1.0	;
	181	180	900.0	19.0	0.333333	1.0	4.0	0.0	0.0	1.0	;
	181	185	900.0	93.0	2.666667	1.0	4.0	0.0	0.0	1.0	;
	182	172	900.0	39.0	1.666667	1.0	4.0	0.0	0.0	1.0	;
	182	175	900.0	19.0	0.333333	1.0	4.0	0.0	0.0	1.0	;
	176	126	900.0	53.0	7.0	1.0	4.0	0.0	0.0	1.0	;
	176	177	900.0	21.0	0.666667	1.0	4.0	0.0	0.0	1.0	;
	179	180	900.0	94.0	2.666667	1.0	4.0	0.0	0.0	1.0	;
	178	182	900.0	195.0	6.666667	1.0	4.0	0.0	0.0	1.0	;
	180	178	900.0	48.0	2.666667	1.0	4.0	0.0	0.0	1.0	;
	180	181	900.0	19.0	0.333333	1.0	4.0	0.0	0.0	1.0	;