<NUMBER OF ZONES> 8
<TOTAL OD FLOW> 77679.187876
<END OF METADATA>

Origin 1
1	 : 	0;
2	 : 	723.39767;
3	 : 	1619.202634;
4	 : 	1345.516502;
5	 : 	1048.716506;
6	 : 	1239.115068;
7	 : 	1044.980066;
8	 : 	721.94565;


Origin 2
1	 : 	915.653636;
2	 : 	0;
3	 : 	301.319636;
4	 : 	2950.761656;
5	 : 	404.653104;
6	 : 	269.845444;
7	 : 	651.321718;
8	 : 	526.855168;


Origin 3
1	 : 	1226.600846;
2	 : 	586.779716;
3	 : 	0;
4	 : 	1439.697428;
5	 : 	1568.298974;
6	 : 	1543.839156;
7	 : 	2873.01563;
8	 : 	1036.729048;


Origin 4
1	 : 	2238.75774;
2	 : 	3318.888532;
3	 : 	1785.131008;
4	 : 	0;
5	 : 	1234.569284;
6	 : 	822.259244;
7	 : 	1717.661478;
8	 : 	3535.541756;


Origin 5
1	 : 	1405.861698;
2	 : 	890.70443;
3	 : 	4422.042778;
4	 : 	801.358682;
5	 : 	0;
6	 : 	1595.196572;
7	 : 	3561.14766;
8	 : 	406.45457;


Origin 6
1	 : 	1080.148002;
2	 : 	360.597208;
3	 : 	916.922518;
4	 : 	212.88108;
5	 : 	317.225944;
6	 : 	0;
7	 : 	6016.233426;
8	 : 	771.84214;


Origin 7
1	 : 	1406.519724;
2	 : 	889.177034;
3	 : 	1703.57548;
4	 : 	983.23802;
5	 : 	567.01139;
6	 : 	4135.033884;
7	 : 	0;
8	 : 	529.102736;


Origin 8
1	 : 	630.637526;
2	 : 	526.79504;
3	 : 	654.203308;
4	 : 	2945.453356;
5	 : 	346.420696;
6	 : 	568.041126;
7	 : 	344.30755;
8	 : 	0;


