<NUMBER OF ZONES> 2
<TOTAL OD FLOW> 4633.899679381393
<END OF METADATA>

Origin 1
1	 : 	0;
2	 : 	4632.956622461379;


Origin 2
1	 : 	0.9430569200135559;
2	 : 	0;


