<NUMBER OF ZONES> 2
<TOTAL OD FLOW> 4005.4353522816446
<END OF METADATA>

Origin 1
1	 : 	0;
2	 : 	4004.6030937644964;


Origin 2
1	 : 	0.8322585171481887;
2	 : 	0;


