<NUMBER OF ZONES> 2
<TOTAL OD FLOW> 4779.3103346814505
<END OF METADATA>

Origin 1
1	 : 	0;
2	 : 	1313.1067201931944;


Origin 2
1	 : 	3466.203614488256;
2	 : 	0;


