<NUMBER OF ZONES> 26
<TOTAL OD FLOW> 10793.42040555194
<END OF METADATA>

Origin 1
1	 : 	0;
2	 : 	19.83479632362703;
3	 : 	20.25003979253981;
4	 : 	19.754659650016492;
5	 : 	15.799817164821384;
6	 : 	4.43444727703539;
7	 : 	0.08703703316629084;
8	 : 	0.3671877840429397;
9	 : 	1.3454682494186994;
10	 : 	0.5627437929656308;
11	 : 	0.23194661562847374;
12	 : 	1.514947558564923;
13	 : 	10.684976337277693;
14	 : 	19.311437275092764;
15	 : 	22.50494851608983;
16	 : 	12.381168060245903;
17	 : 	21.385147697018887;
18	 : 	0.45406298847710097;
19	 : 	0.11839066969281388;
20	 : 	8.67378300064537;
21	 : 	10.369924153491166;
22	 : 	9.688404803543627;
23	 : 	9.42763403462563;
24	 : 	0.02491001386155156;
25	 : 	0.582268188679067;
26	 : 	4.244198122784579;


Origin 2
1	 : 	23.1132477371965;
2	 : 	0;
3	 : 	49.892341842542024;
4	 : 	103.3389016636861;
5	 : 	50.408019587150605;
6	 : 	44.70200765028096;
7	 : 	3.0135960211851334;
8	 : 	2.416630142142955;
9	 : 	5.293202927184191;
10	 : 	3.991880670507758;
11	 : 	0.940703982241167;
12	 : 	10.822325349377769;
13	 : 	15.880011662929325;
14	 : 	49.648287391629225;
15	 : 	42.07357363327197;
16	 : 	27.185865726708403;
17	 : 	32.040458075265676;
18	 : 	12.311946237129998;
19	 : 	1.7411619632676794;
20	 : 	53.92651652620385;
21	 : 	25.845014028155376;
22	 : 	45.169431810817606;
23	 : 	24.121495268374648;
24	 : 	0.2314393762397031;
25	 : 	17.75983026362047;
26	 : 	10.69822673098087;


Origin 3
1	 : 	19.861160149989345;
2	 : 	34.33807709753341;
3	 : 	0;
4	 : 	74.93038973892239;
5	 : 	33.9903902100049;
6	 : 	32.34954017441178;
7	 : 	3.2331455838549776;
8	 : 	2.0458835200313237;
9	 : 	4.353092796506687;
10	 : 	3.7703899532987317;
11	 : 	1.0726379921436777;
12	 : 	10.376804387249965;
13	 : 	22.913930857905093;
14	 : 	46.3040075525312;
15	 : 	32.59143562079089;
16	 : 	22.24804735902758;
17	 : 	53.625624673714384;
18	 : 	13.322655810785294;
19	 : 	1.1229325316272418;
20	 : 	57.113244989768255;
21	 : 	20.14837474676358;
22	 : 	41.507224388029556;
23	 : 	34.70017378182673;
24	 : 	0.21110278994480186;
25	 : 	14.439137817552938;
26	 : 	10.050420470765335;


Origin 4
1	 : 	24.696921327935133;
2	 : 	72.54171610337087;
3	 : 	64.47122029534762;
4	 : 	0;
5	 : 	63.450885948529475;
6	 : 	33.49687702998898;
7	 : 	5.305192142619412;
8	 : 	2.4653296167892806;
9	 : 	8.222623576884414;
10	 : 	5.077923898883389;
11	 : 	1.884004228254398;
12	 : 	16.198932741111935;
13	 : 	34.153495598776125;
14	 : 	62.78309338543349;
15	 : 	96.53940558250913;
16	 : 	40.12631443281985;
17	 : 	77.20268219677126;
18	 : 	19.37309559749982;
19	 : 	1.6801301364122219;
20	 : 	129.1730900776189;
21	 : 	38.299141576949;
22	 : 	43.975328617443054;
23	 : 	51.386142691562995;
24	 : 	0.32268508982292854;
25	 : 	17.944659330454783;
26	 : 	17.789004743867192;


Origin 5
1	 : 	14.725606933132195;
2	 : 	41.69236872216612;
3	 : 	33.670647313508745;
4	 : 	68.5451370612393;
5	 : 	0;
6	 : 	22.627048349145568;
7	 : 	3.7462791686511796;
8	 : 	2.6158196375341065;
9	 : 	5.122460998536148;
10	 : 	5.484325478305852;
11	 : 	1.6928764833328238;
12	 : 	14.832167896080922;
13	 : 	16.14717795252644;
14	 : 	33.121228804965455;
15	 : 	27.799569651798375;
16	 : 	19.46835694294321;
17	 : 	28.85184264266107;
18	 : 	15.495760755571759;
19	 : 	0.9476345300426181;
20	 : 	58.547161295881395;
21	 : 	19.326747649985283;
22	 : 	41.69267954561469;
23	 : 	26.702265024345333;
24	 : 	0.19524231928393376;
25	 : 	9.84058397384471;
26	 : 	10.062021681184659;


Origin 6
1	 : 	4.220728953354182;
2	 : 	37.31449467746867;
3	 : 	27.2103297705346;
4	 : 	41.40746850707915;
5	 : 	30.811038329913625;
6	 : 	0;
7	 : 	0.5927729707359967;
8	 : 	0.8185841846538294;
9	 : 	3.9273473615567074;
10	 : 	2.0161309944095516;
11	 : 	0.6419503627380176;
12	 : 	6.0811731380775385;
13	 : 	20.152086179049068;
14	 : 	36.14392861038902;
15	 : 	39.42753668926018;
16	 : 	12.557987283096946;
17	 : 	26.19443898920405;
18	 : 	1.8953743663128175;
19	 : 	0.45266849653542307;
20	 : 	22.266054192770614;
21	 : 	29.586479900095775;
22	 : 	13.818807484201301;
23	 : 	12.40261126773601;
24	 : 	0.09190298698325436;
25	 : 	1.7283951332557288;
26	 : 	6.381398134153927;


Origin 7
1	 : 	0.1836310958450275;
2	 : 	6.060293890075835;
3	 : 	5.335356404016942;
4	 : 	6.274551155057498;
5	 : 	5.092534721994424;
6	 : 	0.9904623344759907;
7	 : 	0;
8	 : 	10.9750377493915;
9	 : 	59.91866176116751;
10	 : 	14.882402302159687;
11	 : 	8.751618461282902;
12	 : 	92.85177940332458;
13	 : 	1.9088808722694617;
14	 : 	6.555696519046505;
15	 : 	5.760926901590514;
16	 : 	3.2339242311435332;
17	 : 	5.11545260434769;
18	 : 	0;
19	 : 	2.2763996296819933;
20	 : 	1.456893505129608;
21	 : 	2.585891391734798;
22	 : 	3.3249687611754752;
23	 : 	3.606964023903611;
24	 : 	0.6447251131364232;
25	 : 	0;
26	 : 	1.1652294854650649;


Origin 8
1	 : 	0.2192433498833942;
2	 : 	1.492404932336864;
3	 : 	1.3177856121121245;
4	 : 	1.6734928439712318;
5	 : 	1.9266726435236172;
6	 : 	0.5557100565080809;
7	 : 	10.413337948613025;
8	 : 	0;
9	 : 	18.915537741999405;
10	 : 	11.318082932853672;
11	 : 	7.7089885786134245;
12	 : 	50.48045878033996;
13	 : 	1.1351332447703615;
14	 : 	2.960048830215805;
15	 : 	1.8842416797194363;
16	 : 	1.720447152522661;
17	 : 	2.5786355667712417;
18	 : 	0.2862692975047472;
19	 : 	0.6394578123002753;
20	 : 	1.239905425721993;
21	 : 	1.2468670798624328;
22	 : 	2.105599088018684;
23	 : 	0.8821383597791093;
24	 : 	1.2314375399003834;
25	 : 	0.0956805020203559;
26	 : 	0.422757094787638;


Origin 9
1	 : 	0.9522971371014143;
2	 : 	4.573232448782335;
3	 : 	5.284396967919521;
4	 : 	6.804817095026804;
5	 : 	5.361185739126271;
6	 : 	2.463312024780982;
7	 : 	75.84839983171901;
8	 : 	22.458747890024735;
9	 : 	0;
10	 : 	61.52388181687949;
11	 : 	33.82455421157651;
12	 : 	216.30237334959696;
13	 : 	2.176156554367516;
14	 : 	5.562866294148177;
15	 : 	6.83734865136142;
16	 : 	5.522598753763324;
17	 : 	6.212338210322477;
18	 : 	1.3783471819872184;
19	 : 	2.6901683635670572;
20	 : 	6.324417477268852;
21	 : 	4.357635237786127;
22	 : 	6.099847317785317;
23	 : 	3.0154267722194135;
24	 : 	8.146452238199549;
25	 : 	0.41297116978736115;
26	 : 	1.068526321776837;


Origin 10
1	 : 	0.3920853344345334;
2	 : 	4.762152249665209;
3	 : 	4.417258516458908;
4	 : 	4.885720108325362;
5	 : 	4.208698068141199;
6	 : 	1.5321220020878772;
7	 : 	18.531365421410296;
8	 : 	11.155677508764287;
9	 : 	44.292765339765666;
10	 : 	0;
11	 : 	19.372997194032386;
12	 : 	134.42221349493423;
13	 : 	2.064564537482579;
14	 : 	4.8874632899266315;
15	 : 	3.9882706736185165;
16	 : 	3.0704327590794294;
17	 : 	5.1210906538338765;
18	 : 	0.36499700586714945;
19	 : 	1.8721328556498642;
20	 : 	3.0929395117822125;
21	 : 	3.1617166484586647;
22	 : 	3.792545915660922;
23	 : 	1.9353198844395012;
24	 : 	2.3688132348371385;
25	 : 	0.2317135867933033;
26	 : 	0.758590852044184;


Origin 11
1	 : 	0.1460931390690895;
2	 : 	1.3886638574020105;
3	 : 	1.7471306668767257;
4	 : 	2.2052446182140946;
5	 : 	1.8589695243165603;
6	 : 	0.7746996712818173;
7	 : 	11.855893243742686;
8	 : 	5.295242183794819;
9	 : 	34.835679971485796;
10	 : 	15.91834358796825;
11	 : 	0;
12	 : 	44.277045216452215;
13	 : 	0.9759814481660263;
14	 : 	3.118348629837408;
15	 : 	1.9533810189682874;
16	 : 	1.4822350336389976;
17	 : 	3.6573413614826853;
18	 : 	0.26860843298222364;
19	 : 	1.2554624450141567;
20	 : 	0.8153539402503236;
21	 : 	1.5561771204291928;
22	 : 	1.577114748768312;
23	 : 	0.9802474723601826;
24	 : 	1.3736335287985337;
25	 : 	0.05157091914284995;
26	 : 	0.4192168633325004;


Origin 12
1	 : 	1.1207328639110328;
2	 : 	8.935484289853528;
3	 : 	9.682000972728558;
4	 : 	10.791380174927705;
5	 : 	9.649713982653699;
6	 : 	3.953480114249066;
7	 : 	102.0126158895067;
8	 : 	49.32144984706486;
9	 : 	254.16362580031983;
10	 : 	123.24470744895656;
11	 : 	49.35076083822394;
12	 : 	0;
13	 : 	4.761797270008403;
14	 : 	15.17901837325668;
15	 : 	8.942657170200428;
16	 : 	9.394543311918897;
17	 : 	15.896414687931621;
18	 : 	1.9443189213626342;
19	 : 	7.240278515648447;
20	 : 	6.884513870046568;
21	 : 	5.614707203788123;
22	 : 	8.17181583544167;
23	 : 	5.566909993087644;
24	 : 	11.606391268371365;
25	 : 	0.4376168947270188;
26	 : 	2.2882251258925823;


Origin 13
1	 : 	12.410060897234782;
2	 : 	22.869959017452107;
3	 : 	19.642068319604526;
4	 : 	38.22096684051821;
5	 : 	21.387756538090112;
6	 : 	22.233707370702387;
7	 : 	1.292500714299095;
8	 : 	0.8851086234154748;
9	 : 	2.1484824951232957;
10	 : 	2.1728309137865174;
11	 : 	0.43980865324584945;
12	 : 	3.8487701997154993;
13	 : 	0;
14	 : 	24.01344790160113;
15	 : 	25.516997641156358;
16	 : 	16.965917366494782;
17	 : 	14.59743026699901;
18	 : 	8.079276930072385;
19	 : 	0.6649981996247738;
20	 : 	49.34040648576418;
21	 : 	10.189964826447476;
22	 : 	27.10277421525738;
23	 : 	14.766398300332673;
24	 : 	0.11433046689797467;
25	 : 	8.546998671047472;
26	 : 	5.57722486017164;


Origin 14
1	 : 	18.914364559735215;
2	 : 	61.94976099351263;
3	 : 	53.00101303519206;
4	 : 	80.02862570126275;
5	 : 	44.03698315047019;
6	 : 	31.54574964750391;
7	 : 	5.276314044822566;
8	 : 	2.2212369229847697;
9	 : 	4.970153348060986;
10	 : 	3.460618238501304;
11	 : 	1.5261728477494505;
12	 : 	12.627876669455823;
13	 : 	23.83617304551647;
14	 : 	0;
15	 : 	48.60999718898725;
16	 : 	30.99016774306264;
17	 : 	43.98666020346648;
18	 : 	17.458336818151917;
19	 : 	1.7851766464076964;
20	 : 	97.68286522577165;
21	 : 	23.86187432881438;
22	 : 	39.49409308527352;
23	 : 	27.00833230176914;
24	 : 	0.19930676506405165;
25	 : 	13.453304499734394;
26	 : 	11.82441177592053;


Origin 15
1	 : 	23.14632645338718;
2	 : 	43.83343785894336;
3	 : 	34.53556504526037;
4	 : 	80.19785880273193;
5	 : 	32.61234943507591;
6	 : 	33.87576226658115;
7	 : 	2.9135880874106572;
8	 : 	2.942472270974881;
9	 : 	4.987415627370168;
10	 : 	4.860463848672183;
11	 : 	1.8103898066346251;
12	 : 	11.946237244170275;
13	 : 	19.047941930840675;
14	 : 	49.339496670443275;
15	 : 	0;
16	 : 	21.1296029235835;
17	 : 	43.411344046080835;
18	 : 	17.090683140560294;
19	 : 	1.3804911113706524;
20	 : 	91.62971099605787;
21	 : 	27.734777831344996;
22	 : 	44.04868801729245;
23	 : 	21.309596581356914;
24	 : 	0.2737345417086602;
25	 : 	13.016436360032156;
26	 : 	11.14035172184742;


Origin 16
1	 : 	9.704499343274538;
2	 : 	30.446405645068886;
3	 : 	25.55256131417541;
4	 : 	40.327214660885296;
5	 : 	20.773956980669116;
6	 : 	15.9648413844361;
7	 : 	2.1157072658911407;
8	 : 	1.353796657668815;
9	 : 	4.43240927484312;
10	 : 	3.38038113398961;
11	 : 	1.1177139149111168;
12	 : 	9.327573344150066;
13	 : 	18.211408866307636;
14	 : 	35.37902533401118;
15	 : 	28.98157610154655;
16	 : 	0;
17	 : 	30.574119610656805;
18	 : 	9.952250014825644;
19	 : 	0.7718929416881911;
20	 : 	45.83393103804889;
21	 : 	20.9263973272034;
22	 : 	22.628808277601344;
23	 : 	22.38583736484011;
24	 : 	0.16768518896338938;
25	 : 	8.385332748398303;
26	 : 	6.68012919072777;


Origin 17
1	 : 	16.09384034588758;
2	 : 	49.32246285098895;
3	 : 	59.33460714264348;
4	 : 	86.85355385818288;
5	 : 	25.76456679652413;
6	 : 	26.988348158205874;
7	 : 	3.86380650157482;
8	 : 	2.1933342169091192;
9	 : 	6.357605995216899;
10	 : 	4.545181000887411;
11	 : 	2.067447894722286;
12	 : 	17.442948489845694;
13	 : 	13.99164193956299;
14	 : 	39.26958413011411;
15	 : 	37.043814950973854;
16	 : 	29.90334188136572;
17	 : 	0;
18	 : 	9.004322312971215;
19	 : 	1.6039855550895599;
20	 : 	76.88741900143556;
21	 : 	24.28838837484937;
22	 : 	32.876666715029295;
23	 : 	18.151661614115262;
24	 : 	0.25890182501472986;
25	 : 	10.735782719041618;
26	 : 	11.728936228341887;


Origin 18
1	 : 	0.5432561015895844;
2	 : 	14.275711819011095;
3	 : 	10.74694598519715;
4	 : 	20.14453687125723;
5	 : 	14.127751888070406;
6	 : 	2.0698850856492834;
7	 : 	0;
8	 : 	0.30957280350464506;
9	 : 	1.9718337594649462;
10	 : 	0.5710018631741915;
11	 : 	0.34903637967562123;
12	 : 	3.1775883908016764;
13	 : 	8.332803629824328;
14	 : 	20.55246020314508;
15	 : 	15.09700312151864;
16	 : 	10.111737320349636;
17	 : 	11.348005468047235;
18	 : 	0;
19	 : 	0.07429769303871428;
20	 : 	5.94192612611735;
21	 : 	12.560282839715885;
22	 : 	8.980446653779804;
23	 : 	6.017850217681261;
24	 : 	0.03426292715485978;
25	 : 	0;
26	 : 	2.8325370327079793;


Origin 19
1	 : 	0.06750712729523704;
2	 : 	0.12403809464128415;
3	 : 	0.15743915751373988;
4	 : 	0.22115630902425867;
5	 : 	0.10668910042858781;
6	 : 	0.12227942734244662;
7	 : 	2.6357767154929954;
8	 : 	1.7139822350525844;
9	 : 	2.7202257188215913;
10	 : 	5.283006483621479;
11	 : 	1.3227956531259584;
12	 : 	21.878328096220077;
13	 : 	0.6935821061909342;
14	 : 	1.4520920772229033;
15	 : 	0.1182288293523202;
16	 : 	0.8840777412551544;
17	 : 	1.6385306839538198;
18	 : 	0.07011381444544679;
19	 : 	0;
20	 : 	0.5854799115159665;
21	 : 	0.8615421351481755;
22	 : 	1.0176447165124616;
23	 : 	0.08326017232351524;
24	 : 	0.17224967125234567;
25	 : 	0.03267855372874275;
26	 : 	0.24386855240740918;


Origin 20
1	 : 	8.819950608891284;
2	 : 	61.381907233569024;
3	 : 	66.1747594809167;
4	 : 	119.86989600115284;
5	 : 	86.76202109325585;
6	 : 	20.48364186097675;
7	 : 	0.9906974057976005;
8	 : 	1.935414901853981;
9	 : 	6.057117685726997;
10	 : 	4.041188368878754;
11	 : 	1.1113617294768698;
12	 : 	9.543563215270517;
13	 : 	44.06619984500053;
14	 : 	74.3994934293124;
15	 : 	75.39394015703698;
16	 : 	57.16915047766393;
17	 : 	59.71829070023227;
18	 : 	5.39999078152566;
19	 : 	0.6846272456793789;
20	 : 	0;
21	 : 	62.48051838533341;
22	 : 	55.44271046609803;
23	 : 	43.04734098774157;
24	 : 	0.22988619657517023;
25	 : 	5.668049470424782;
26	 : 	12.734756546007217;


Origin 21
1	 : 	14.4751083510672;
2	 : 	29.09346452969036;
3	 : 	30.46919689618187;
4	 : 	48.05425415173643;
5	 : 	24.868258162982677;
6	 : 	27.286228683192398;
7	 : 	2.1232966886830686;
8	 : 	1.1565496909309343;
9	 : 	2.316028481295396;
10	 : 	2.274881758047505;
11	 : 	0.6542716871254594;
12	 : 	5.237716640512632;
13	 : 	10.363477742019862;
14	 : 	22.699113718622442;
15	 : 	25.941529253028484;
16	 : 	18.54196068588977;
17	 : 	21.386334839626116;
18	 : 	11.266680932977822;
19	 : 	0.9896583863128475;
20	 : 	59.40231444401454;
21	 : 	0;
22	 : 	27.78615464678337;
23	 : 	19.327673996128635;
24	 : 	0.13607817284939855;
25	 : 	12.56419458930721;
26	 : 	7.22592161703831;


Origin 22
1	 : 	12.150116782106622;
2	 : 	61.645885605719975;
3	 : 	38.0931722798955;
4	 : 	60.12134013603033;
5	 : 	46.212646473053965;
6	 : 	14.14525274220125;
7	 : 	2.590221613925707;
8	 : 	1.8560121433219157;
9	 : 	3.976241448999228;
10	 : 	3.36473462065813;
11	 : 	1.092133662430387;
12	 : 	11.059544507352653;
13	 : 	26.659351750758248;
14	 : 	34.2872179486311;
15	 : 	46.20943795608647;
16	 : 	26.795096677022613;
17	 : 	32.349090475161084;
18	 : 	9.98054565889411;
19	 : 	1.1264086127924988;
20	 : 	61.449488039906456;
21	 : 	23.082880524091138;
22	 : 	0;
23	 : 	17.903231622348617;
24	 : 	0.12117092781406277;
25	 : 	8.458319127304234;
26	 : 	8.793449820005268;


Origin 23
1	 : 	11.966238609851118;
2	 : 	27.34543938264748;
3	 : 	25.442535423159377;
4	 : 	54.56563752323432;
5	 : 	24.35966838523255;
6	 : 	16.54702469070751;
7	 : 	2.3931386461973605;
8	 : 	1.5572404920096456;
9	 : 	2.6780415133374817;
10	 : 	2.449742501053851;
11	 : 	0.7967963141592063;
12	 : 	8.43265067069499;
13	 : 	11.577783826243895;
14	 : 	21.122491787956942;
15	 : 	28.113921082444314;
16	 : 	15.799146424912234;
17	 : 	17.238778701951674;
18	 : 	7.649214783327716;
19	 : 	0.9159378426294766;
20	 : 	33.44757242692012;
21	 : 	15.633386994525113;
22	 : 	15.93881298844775;
23	 : 	0;
24	 : 	0.10205798625447095;
25	 : 	5.012494600161738;
26	 : 	4.389119586478738;


Origin 24
1	 : 	0.02730230200502187;
2	 : 	0.3220527064209034;
3	 : 	0.24471752952631617;
4	 : 	0.38439975544272176;
5	 : 	0.24993936723128676;
6	 : 	0.06988404710615613;
7	 : 	1.1225063453908872;
8	 : 	1.8346419612828069;
9	 : 	3.4331527184521864;
10	 : 	2.515999054774103;
11	 : 	0.988021211641527;
12	 : 	14.714339497980799;
13	 : 	0.7033583292999407;
14	 : 	1.674217963537325;
15	 : 	0.36004555343138234;
16	 : 	0.7737909609420627;
17	 : 	2.060437583812135;
18	 : 	0.011254579453410244;
19	 : 	0.5148341869588765;
20	 : 	0.8195399898706697;
21	 : 	0.9280290009559111;
22	 : 	0.9128108244454864;
23	 : 	0.12713584893618993;
24	 : 	0;
25	 : 	0.008444553253557044;
26	 : 	0.21819452085173408;


Origin 25
1	 : 	0.4719895197139711;
2	 : 	14.30548370835939;
3	 : 	11.8015528890339;
4	 : 	15.819962831836659;
5	 : 	9.402257378531782;
6	 : 	1.8125975312660048;
7	 : 	0;
8	 : 	0.16469243555014446;
9	 : 	0.5688138977640818;
10	 : 	0.34880380710474396;
11	 : 	0.06551431209842508;
12	 : 	0.5888334314770576;
13	 : 	7.729506943176153;
14	 : 	16.628133276789512;
15	 : 	11.6122913335702;
16	 : 	7.139274137425957;
17	 : 	10.377640615957034;
18	 : 	0;
19	 : 	0.04589002974411903;
20	 : 	5.851436075941331;
21	 : 	12.998470936164365;
22	 : 	7.226858043271337;
23	 : 	4.720400400175397;
24	 : 	0.019666874729114436;
25	 : 	0;
26	 : 	1.6994135853369636;


Origin 26
1	 : 	3.9934057687797524;
2	 : 	13.020127341626505;
3	 : 	13.296013798053247;
4	 : 	17.764340141579744;
5	 : 	10.766322038485596;
6	 : 	7.99510934987361;
7	 : 	0.728876797029011;
8	 : 	0.4330932020319737;
9	 : 	0.9309813257204443;
10	 : 	0.8058113983222126;
11	 : 	0.430720408925358;
12	 : 	2.3970385116427573;
13	 : 	5.561883268212657;
14	 : 	11.479960692022063;
15	 : 	10.37618491120299;
16	 : 	6.861390971682811;
17	 : 	12.047373186295642;
18	 : 	2.7259451835934674;
19	 : 	0.23041865730766142;
20	 : 	13.946413904060133;
21	 : 	7.443756304319921;
22	 : 	10.874636725734808;
23	 : 	5.785787291546889;
24	 : 	0.027960203623856688;
25	 : 	1.4099580759135506;
26	 : 	0;


