<NUMBER OF ZONES> 2
<TOTAL OD FLOW>   2000.0
<END OF METADATA>

Origin 	1 
    1 :      0.0;     2 :     1000.0;

Origin 	2 
    1 :      1000.0;     2 :     0.0;