<NUMBER OF ZONES> 2
<NUMBER OF NODES> 4
<FIRST THRU NODE> 1
<NUMBER OF LINKS> 6
<END OF METADATA>



~ 	Init node 	Term node 	Capacity 	Length 	Free Flow Time 	B	Power	Speed limit 	Toll 	Type	;
	1	3	2000	16.2	0.23	70.00	1	0	0	1	;
	1	4	2000	12.9	0.18	70.00	1	0	0	1	;
	3	2	2000	12.5	0.18	70.00	1	0	0	1	;
	3	4	2000	5.0	0.07	70.00	1	0	0	1	;
	4	2	2000	16.5	0.24	70.00	1	0	0	1	;
	2	1	100	1.0	0.017	0.18	1	0	0	1	;