<NUMBER OF ZONES> 38
<NUMBER OF ZONES> 38
<FIRST THRU NODE> 1
<NUMBER OF LINKS> 146
<NUMBER OF ZONES> 38
<END OF METADATA>


~  Init node  Term node  Capacity  Length  Free Flow Time  B  Power  Speed limit  Toll  Type  ;
	9	26	281.784633	1295.049999	0.016309	0.000000	21.121479	0.000000	0.000000	0.000000	;
	28	18	347.417257	1893.810033	0.012539	0.000000	23.746736	0.000000	0.000000	0.000000	;
	24	17	476.148844	2148.001999	0.010886	0.000000	23.383536	0.000000	0.000000	0.000000	;
	14	4	300.488390	2189.264829	0.012731	0.000000	27.871314	0.000000	0.000000	0.000000	;
	13	4	214.160897	2219.794617	0.010717	0.000000	23.789998	0.000000	0.000000	0.000000	;
	20	7	405.357848	2151.904919	0.010008	0.000000	21.535928	0.000000	0.000000	0.000000	;
	27	17	549.071816	1565.482210	0.010800	0.000000	16.906793	0.000000	0.000000	0.000000	;
	1	6	412.234827	4195.074273	0.005913	0.000000	24.803919	0.000000	0.000000	0.000000	;
	33	22	242.468451	1328.879033	0.012185	0.000000	16.192155	0.000000	0.000000	0.000000	;
	27	2	365.600164	1409.442150	0.013596	0.000000	19.162268	0.000000	0.000000	0.000000	;
	24	27	288.572386	2673.846658	0.006833	0.000000	18.269619	0.000000	0.000000	0.000000	;
	31	22	310.686773	1642.104704	0.009564	0.000000	15.704720	0.000000	0.000000	0.000000	;
	32	16	352.918450	1694.341631	0.011085	0.000000	18.781268	0.000000	0.000000	0.000000	;
	9	36	268.741479	1689.291791	0.011427	0.000000	19.304361	0.000000	0.000000	0.000000	;
	2	27	340.816547	1406.192115	0.013337	0.000000	18.753788	0.000000	0.000000	0.000000	;
	18	20	474.453941	1009.162296	0.023253	0.000000	23.466425	0.000000	0.000000	0.000000	;
	23	25	211.627459	1603.816319	0.012007	0.000000	19.257685	0.000000	0.000000	0.000000	;
	4	10	420.262394	1874.631311	0.013239	0.000000	24.817462	0.000000	0.000000	0.000000	;
	10	13	222.996671	1198.760985	0.020856	0.000000	25.000834	0.000000	0.000000	0.000000	;
	34	30	274.899209	4017.025543	0.006079	0.000000	24.418784	0.000000	0.000000	0.000000	;
	31	15	386.219951	2407.819259	0.009988	0.000000	24.049934	0.000000	0.000000	0.000000	;
	21	37	349.883760	2037.047625	0.009507	0.000000	19.366988	0.000000	0.000000	0.000000	;
	19	13	259.006884	2134.180592	0.011714	0.000000	25.000469	0.000000	0.000000	0.000000	;
	25	21	345.162300	1190.872034	0.012114	0.000000	14.426038	0.000000	0.000000	0.000000	;
	13	10	319.706822	1944.158789	0.012859	0.000000	25.000514	0.000000	0.000000	0.000000	;
	3	12	575.870283	822.384501	0.021718	0.000000	17.860292	0.000000	0.000000	0.000000	;
	2	28	413.998924	3892.777974	0.004801	0.000000	18.688974	0.000000	0.000000	0.000000	;
	14	36	335.696347	1843.037743	0.011546	0.000000	21.279109	0.000000	0.000000	0.000000	;
	29	20	426.587679	1987.197639	0.011902	0.000000	23.652385	0.000000	0.000000	0.000000	;
	15	33	332.312597	1176.799224	0.013736	0.000000	16.164336	0.000000	0.000000	0.000000	;
	10	14	443.596057	2941.833414	0.008498	0.000000	25.000340	0.000000	0.000000	0.000000	;
	2	37	197.890264	989.020225	0.016185	0.000000	16.007518	0.000000	0.000000	0.000000	;
	34	14	409.676824	1535.211186	0.016285	0.000000	25.000651	0.000000	0.000000	0.000000	;
	24	21	427.881011	1638.434828	0.011677	0.000000	19.131958	0.000000	0.000000	0.000000	;
	21	24	356.296997	1491.023729	0.013682	0.000000	20.400524	0.000000	0.000000	0.000000	;
	11	16	332.008721	3016.429543	0.005467	0.000000	16.490380	0.000000	0.000000	0.000000	;
	33	18	273.458461	1946.220787	0.008579	0.000000	16.695859	0.000000	0.000000	0.000000	;
	33	7	353.953165	1579.995897	0.010295	0.000000	16.266233	0.000000	0.000000	0.000000	;
	32	9	424.901362	1435.069736	0.013551	0.000000	19.446739	0.000000	0.000000	0.000000	;
	3	17	358.445025	1601.540526	0.011227	0.000000	17.980715	0.000000	0.000000	0.000000	;
	10	30	296.665994	2243.286428	0.010702	0.000000	24.007308	0.000000	0.000000	0.000000	;
	7	15	312.185363	1821.020230	0.009167	0.000000	16.693435	0.000000	0.000000	0.000000	;
	11	31	355.179791	1789.990845	0.010298	0.000000	18.433517	0.000000	0.000000	0.000000	;
	17	24	338.933940	1998.902771	0.013452	0.000000	26.889570	0.000000	0.000000	0.000000	;
	16	32	302.622612	1645.671460	0.011352	0.000000	18.681147	0.000000	0.000000	0.000000	;
	28	27	421.936080	2017.598974	0.009272	0.000000	18.706995	0.000000	0.000000	0.000000	;
	1	10	274.037314	3383.321410	0.007376	0.000000	24.954015	0.000000	0.000000	0.000000	;
	8	6	235.221402	3833.161098	0.008028	0.000000	30.774451	0.000000	0.000000	0.000000	;
	14	34	597.197134	2012.654262	0.012209	0.000000	24.572030	0.000000	0.000000	0.000000	;
	31	11	313.010744	1425.282933	0.016998	0.000000	24.227435	0.000000	0.000000	0.000000	;
	30	1	356.507455	1269.416885	0.019163	0.000000	24.325752	0.000000	0.000000	0.000000	;
	36	9	243.116215	3256.877655	0.009527	0.000000	31.027556	0.000000	0.000000	0.000000	;
	10	4	370.508808	1811.754050	0.013529	0.000000	24.511430	0.000000	0.000000	0.000000	;
	22	15	383.044203	1635.539221	0.010567	0.000000	17.283212	0.000000	0.000000	0.000000	;
	7	18	342.039215	1254.526623	0.016209	0.000000	20.335077	0.000000	0.000000	0.000000	;
	37	25	1518.704394	3499.023366	0.009193	0.000000	32.167700	0.000000	0.000000	0.000000	;
	1	19	233.818951	1935.192552	0.012699	0.000000	24.574939	0.000000	0.000000	0.000000	;
	15	7	350.037552	1068.302014	0.023402	0.000000	25.000936	0.000000	0.000000	0.000000	;
	13	19	302.285058	1712.423569	0.014600	0.000000	25.000584	0.000000	0.000000	0.000000	;
	2	24	264.407729	1152.280211	0.011877	0.000000	13.685668	0.000000	0.000000	0.000000	;
	17	27	428.250585	1739.439837	0.008342	0.000000	14.510243	0.000000	0.000000	0.000000	;
	12	35	355.508330	1766.346070	0.011462	0.000000	20.245649	0.000000	0.000000	0.000000	;
	36	32	316.318959	2290.058082	0.008214	0.000000	18.810196	0.000000	0.000000	0.000000	;
	34	16	239.236589	1525.016215	0.014029	0.000000	21.393839	0.000000	0.000000	0.000000	;
	25	37	266.492698	3509.536467	0.008234	0.000000	28.897358	0.000000	0.000000	0.000000	;
	6	1	308.469211	3567.581412	0.007008	0.000000	25.000280	0.000000	0.000000	0.000000	;
	16	36	327.698672	1607.054513	0.010149	0.000000	16.310200	0.000000	0.000000	0.000000	;
	36	14	324.675022	1886.210784	0.009791	0.000000	18.468784	0.000000	0.000000	0.000000	;
	34	10	221.148148	1938.701848	0.012895	0.000000	25.000516	0.000000	0.000000	0.000000	;
	20	28	578.323435	1166.671866	0.019963	0.000000	23.290167	0.000000	0.000000	0.000000	;
	36	34	451.260849	3434.165997	0.006473	0.000000	22.228350	0.000000	0.000000	0.000000	;
	32	36	370.326200	1515.401755	0.011439	0.000000	17.334291	0.000000	0.000000	0.000000	;
	19	1	291.495977	1856.966179	0.013463	0.000000	25.000539	0.000000	0.000000	0.000000	;
	1	30	296.368618	975.928256	0.024718	0.000000	24.122987	0.000000	0.000000	0.000000	;
	24	2	248.871451	1315.201335	0.011364	0.000000	14.946271	0.000000	0.000000	0.000000	;
	19	8	225.240682	2179.917872	0.011469	0.000000	25.000459	0.000000	0.000000	0.000000	;
	2	29	341.846028	2602.565523	0.007104	0.000000	18.487943	0.000000	0.000000	0.000000	;
	34	38	307.889664	3187.594836	0.007832	0.000000	24.966474	0.000000	0.000000	0.000000	;
	8	13	191.170442	2032.609237	0.011924	0.000000	24.236325	0.000000	0.000000	0.000000	;
	4	8	193.011875	1992.109370	0.015355	0.000000	30.589809	0.000000	0.000000	0.000000	;
	28	29	328.821951	820.591242	0.025558	0.000000	20.972262	0.000000	0.000000	0.000000	;
	8	19	198.237872	2108.705052	0.012842	0.000000	27.080165	0.000000	0.000000	0.000000	;
	5	26	413.750874	1121.657141	0.015427	0.000000	17.303782	0.000000	0.000000	0.000000	;
	36	16	454.813780	2149.743726	0.007309	0.000000	15.712760	0.000000	0.000000	0.000000	;
	22	33	241.946454	1330.276032	0.011606	0.000000	15.439191	0.000000	0.000000	0.000000	;
	37	2	210.523494	977.783054	0.016160	0.000000	15.800488	0.000000	0.000000	0.000000	;
	38	34	323.315793	2798.171999	0.008922	0.000000	24.964697	0.000000	0.000000	0.000000	;
	25	23	253.371154	1561.113522	0.012257	0.000000	19.135038	0.000000	0.000000	0.000000	;
	7	20	332.320417	1374.916589	0.018183	0.000000	25.000727	0.000000	0.000000	0.000000	;
	7	33	307.767167	1419.853792	0.011133	0.000000	15.807502	0.000000	0.000000	0.000000	;
	11	34	324.714946	1465.574701	0.017059	0.000000	25.000682	0.000000	0.000000	0.000000	;
	26	3	308.112052	1745.967435	0.012088	0.000000	21.105165	0.000000	0.000000	0.000000	;
	35	27	407.981323	2034.292463	0.009321	0.000000	18.962105	0.000000	0.000000	0.000000	;
	4	13	187.366244	2707.358177	0.008863	0.000000	23.996202	0.000000	0.000000	0.000000	;
	28	2	356.307383	3428.853857	0.005773	0.000000	19.794957	0.000000	0.000000	0.000000	;
	12	3	367.639124	975.477016	0.020409	0.000000	19.908661	0.000000	0.000000	0.000000	;
	15	22	296.883289	1836.568200	0.008738	0.000000	16.047740	0.000000	0.000000	0.000000	;
	14	10	458.109319	3163.041247	0.007818	0.000000	24.727681	0.000000	0.000000	0.000000	;
	19	6	259.965856	1758.315251	0.014218	0.000000	25.000569	0.000000	0.000000	0.000000	;
	13	1	270.599612	2297.659514	0.010881	0.000000	25.000435	0.000000	0.000000	0.000000	;
	30	34	263.715276	3957.459192	0.006223	0.000000	24.627654	0.000000	0.000000	0.000000	;
	26	9	295.278192	1272.034846	0.016934	0.000000	21.541039	0.000000	0.000000	0.000000	;
	28	20	408.976871	1342.369146	0.018492	0.000000	24.822780	0.000000	0.000000	0.000000	;
	18	28	435.744705	1287.285385	0.017282	0.000000	22.247354	0.000000	0.000000	0.000000	;
	3	26	299.389630	1292.960571	0.017066	0.000000	22.066092	0.000000	0.000000	0.000000	;
	20	29	475.297453	1987.263108	0.011238	0.000000	22.332542	0.000000	0.000000	0.000000	;
	6	8	262.395424	3827.448628	0.008572	0.000000	32.810117	0.000000	0.000000	0.000000	;
	27	28	450.875573	2515.047495	0.007395	0.000000	18.599175	0.000000	0.000000	0.000000	;
	34	36	351.498306	2814.691458	0.007698	0.000000	21.666771	0.000000	0.000000	0.000000	;
	18	7	380.565691	2050.986388	0.009752	0.000000	20.001361	0.000000	0.000000	0.000000	;
	37	21	339.080243	2342.890450	0.008128	0.000000	19.044123	0.000000	0.000000	0.000000	;
	18	33	262.403333	1786.350102	0.009516	0.000000	16.998589	0.000000	0.000000	0.000000	;
	8	4	209.703514	1425.963410	0.016218	0.000000	23.126008	0.000000	0.000000	0.000000	;
	29	28	436.827819	1252.463129	0.016874	0.000000	21.133687	0.000000	0.000000	0.000000	;
	35	12	698.228382	1299.203715	0.018024	0.000000	23.417485	0.000000	0.000000	0.000000	;
	5	32	490.470843	1734.418474	0.013451	0.000000	23.329434	0.000000	0.000000	0.000000	;
	34	11	303.245416	1618.177010	0.015450	0.000000	25.000618	0.000000	0.000000	0.000000	;
	15	31	326.001573	2405.758399	0.009998	0.000000	24.052248	0.000000	0.000000	0.000000	;
	12	5	384.342361	1580.800645	0.014146	0.000000	22.361254	0.000000	0.000000	0.000000	;
	17	3	359.112256	1568.363679	0.012450	0.000000	19.525478	0.000000	0.000000	0.000000	;
	13	8	307.329866	1653.451744	0.014780	0.000000	24.437522	0.000000	0.000000	0.000000	;
	22	31	328.753094	1843.053907	0.009036	0.000000	16.654725	0.000000	0.000000	0.000000	;
	11	38	401.475244	2113.512061	0.011861	0.000000	25.069369	0.000000	0.000000	0.000000	;
	10	34	304.525419	1718.314834	0.014549	0.000000	25.000582	0.000000	0.000000	0.000000	;
	5	12	298.995267	1588.657907	0.010165	0.000000	16.147949	0.000000	0.000000	0.000000	;
	33	15	426.268991	1179.864332	0.011741	0.000000	13.852505	0.000000	0.000000	0.000000	;
	20	18	418.191188	1007.918040	0.022702	0.000000	22.882219	0.000000	0.000000	0.000000	;
	35	17	335.653844	1103.891613	0.016553	0.000000	18.272308	0.000000	0.000000	0.000000	;
	30	38	290.763085	1479.410927	0.016225	0.000000	24.003966	0.000000	0.000000	0.000000	;
	9	32	385.520278	1112.156348	0.013308	0.000000	14.800207	0.000000	0.000000	0.000000	;
	27	24	304.011944	2519.283687	0.007671	0.000000	19.326186	0.000000	0.000000	0.000000	;
	1	13	261.724027	2072.376988	0.012064	0.000000	25.000483	0.000000	0.000000	0.000000	;
	16	11	301.804122	2648.355439	0.007318	0.000000	19.381598	0.000000	0.000000	0.000000	;
	4	14	324.066101	1739.727958	0.014370	0.000000	25.000575	0.000000	0.000000	0.000000	;
	30	10	281.609153	2552.051746	0.009570	0.000000	24.422604	0.000000	0.000000	0.000000	;
	29	2	376.282938	2606.173126	0.007243	0.000000	18.876853	0.000000	0.000000	0.000000	;
	10	1	283.042498	3383.805332	0.007388	0.000000	25.000296	0.000000	0.000000	0.000000	;
	27	35	400.514571	2032.554546	0.010509	0.000000	21.360051	0.000000	0.000000	0.000000	;
	6	19	297.449520	4387.656807	0.005698	0.000000	25.000228	0.000000	0.000000	0.000000	;
	21	25	276.215469	1235.695520	0.013171	0.000000	16.275297	0.000000	0.000000	0.000000	;
	38	11	391.184094	2271.465943	0.010987	0.000000	24.956511	0.000000	0.000000	0.000000	;
	16	34	368.299681	2848.440597	0.007931	0.000000	22.591127	0.000000	0.000000	0.000000	;
	38	30	388.161895	2070.267890	0.011575	0.000000	23.964228	0.000000	0.000000	0.000000	;
	26	5	383.372630	1123.728631	0.017240	0.000000	19.372745	0.000000	0.000000	0.000000	;
	17	35	420.552032	1122.460425	0.017507	0.000000	19.650381	0.000000	0.000000	0.000000	;
	32	5	538.504331	2442.283193	0.007721	0.000000	18.856619	0.000000	0.000000	0.000000	;
