<NUMBER OF ZONES> 2
<NUMBER OF ZONES> 2
<FIRST THRU NODE> 1
<NUMBER OF LINKS> 9905
<NUMBER OF ZONES> 2
<END OF METADATA>


~  Init node  Term node  Capacity  Length  Free Flow Time  B  Power  Speed limit  Toll  Type  ;
	3404	277	235.911263	78.637088	0.190750	0.000000	15.000000	0.000000	0.000000	0.000000	;
	484	2428	588.046961	196.015654	0.025583	0.000000	5.014700	0.000000	0.000000	0.000000	;
	1406	2255	503.007656	299.430728	0.050095	0.000000	15.000000	0.000000	0.000000	0.000000	;
	115	4048	649.951306	216.650435	0.048301	0.000000	10.464500	0.000000	0.000000	0.000000	;
	2304	3761	1054.205586	527.102793	0.090990	0.000000	47.960833	0.000000	0.000000	0.000000	;
	3901	332	278.171832	76.686964	0.326001	0.000000	25.000000	0.000000	0.000000	0.000000	;
	4085	3615	466.204290	116.551073	0.083457	0.000000	9.727000	0.000000	0.000000	0.000000	;
	530	531	160.336024	80.168012	0.140228	0.000000	11.241800	0.000000	0.000000	0.000000	;
	2302	2014	297.269618	148.634809	0.094872	0.000000	14.101333	0.000000	0.000000	0.000000	;
	4079	1404	231.185535	309.558471	0.080760	0.000000	25.000000	0.000000	0.000000	0.000000	;
	841	3739	243.281418	229.411106	0.065385	0.000000	15.000000	0.000000	0.000000	0.000000	;
	1004	2369	343.180275	85.795069	0.226705	0.000000	19.450154	0.000000	0.000000	0.000000	;
	893	414	408.007350	102.001837	0.245094	0.000000	25.000000	0.000000	0.000000	0.000000	;
	497	501	302.137790	151.068895	0.165487	0.000000	25.000000	0.000000	0.000000	0.000000	;
	3990	1789	120.558827	60.279413	0.414735	0.000000	25.000000	0.000000	0.000000	0.000000	;
	1631	3417	352.249704	228.325569	0.065696	0.000000	15.000000	0.000000	0.000000	0.000000	;
	1829	1830	347.399241	173.699620	0.086356	0.000000	15.000000	0.000000	0.000000	0.000000	;
	3676	3683	36.972810	18.486405	0.681907	0.000000	12.606000	0.000000	0.000000	0.000000	;
	2259	256	431.516668	215.758334	0.045391	0.000000	9.793400	0.000000	0.000000	0.000000	;
	3722	2685	244.451751	81.483917	0.233023	0.000000	18.987667	0.000000	0.000000	0.000000	;
	1651	341	230.053766	57.513441	0.434681	0.000000	25.000000	0.000000	0.000000	0.000000	;
	3474	2391	539.934051	269.967025	0.054421	0.000000	14.692000	0.000000	0.000000	0.000000	;
	2573	3095	285.394490	142.697245	0.104370	0.000000	14.893250	0.000000	0.000000	0.000000	;
	1583	1784	174.606665	87.303333	0.286358	0.000000	25.000000	0.000000	0.000000	0.000000	;
	2659	739	302.615709	100.871903	0.247839	0.000000	25.000000	0.000000	0.000000	0.000000	;
	1450	2352	284.885778	71.221444	0.156347	0.000000	11.135250	0.000000	0.000000	0.000000	;
	2452	3361	284.977445	142.488723	0.041617	0.000000	5.930000	0.000000	0.000000	0.000000	;
	3675	4496	678.515329	339.257664	0.070784	0.000000	24.014000	0.000000	0.000000	0.000000	;
	652	2994	532.518759	266.259380	0.056336	0.000000	15.000000	0.000000	0.000000	0.000000	;
	1428	1255	42.412888	21.206444	0.707332	0.000000	15.000000	0.000000	0.000000	0.000000	;
	1306	711	459.006521	229.503261	0.087145	0.000000	20.000000	0.000000	0.000000	0.000000	;
	904	847	239.217186	79.739062	0.235879	0.000000	18.808786	0.000000	0.000000	0.000000	;
	3139	4303	136.194395	68.097197	0.367122	0.000000	25.000000	0.000000	0.000000	0.000000	;
	1516	148	238.765096	119.382548	0.125647	0.000000	15.000000	0.000000	0.000000	0.000000	;
	1641	3657	285.256504	142.628252	0.063601	0.000000	9.071250	0.000000	0.000000	0.000000	;
	1285	2067	241.924634	80.641545	0.168900	0.000000	13.620320	0.000000	0.000000	0.000000	;
	4507	2598	200.236719	100.118359	0.124822	0.000000	12.497000	0.000000	0.000000	0.000000	;
	3108	3106	160.079043	80.039522	0.320417	0.000000	25.646000	0.000000	0.000000	0.000000	;
	1116	3953	236.152341	78.717447	0.317592	0.000000	25.000000	0.000000	0.000000	0.000000	;
	1235	3637	236.752332	78.917444	0.316787	0.000000	25.000000	0.000000	0.000000	0.000000	;
	2547	2264	228.734909	76.244970	0.262312	0.000000	20.000000	0.000000	0.000000	0.000000	;
	4419	1292	538.077918	269.038959	0.055754	0.000000	15.000000	0.000000	0.000000	0.000000	;
	4324	603	529.728278	264.864139	0.048704	0.000000	12.900000	0.000000	0.000000	0.000000	;
	1969	1964	629.598698	100.508013	0.248736	0.000000	25.000000	0.000000	0.000000	0.000000	;
	2998	3004	363.758916	90.939729	0.274907	0.000000	25.000000	0.000000	0.000000	0.000000	;
	1763	1764	316.926630	158.463315	0.157765	0.000000	25.000000	0.000000	0.000000	0.000000	;
	974	2297	296.880325	74.220081	0.336836	0.000000	25.000000	0.000000	0.000000	0.000000	;
	2735	2747	324.660690	108.220230	0.138606	0.000000	15.000000	0.000000	0.000000	0.000000	;
	2667	2705	160.939097	80.469548	0.310677	0.000000	25.000000	0.000000	0.000000	0.000000	;
	1134	4112	715.944470	238.648157	0.033927	0.000000	8.096500	0.000000	0.000000	0.000000	;
	3144	428	314.450065	78.612516	0.190809	0.000000	15.000000	0.000000	0.000000	0.000000	;
	4510	451	168.811750	84.405875	0.177713	0.000000	15.000000	0.000000	0.000000	0.000000	;
	3385	1990	164.815347	82.407674	0.182022	0.000000	15.000000	0.000000	0.000000	0.000000	;
	1065	2588	278.372086	139.186043	0.179616	0.000000	25.000000	0.000000	0.000000	0.000000	;
	1464	1347	241.560444	80.520148	0.243053	0.000000	19.570692	0.000000	0.000000	0.000000	;
	2441	3966	266.622641	133.311321	0.063063	0.000000	8.407000	0.000000	0.000000	0.000000	;
	3659	792	650.969759	216.989920	0.050873	0.000000	11.039000	0.000000	0.000000	0.000000	;
	1163	623	533.613488	266.806744	0.056220	0.000000	15.000000	0.000000	0.000000	0.000000	;
	1222	1934	138.194427	207.450100	0.144613	0.000000	30.000000	0.000000	0.000000	0.000000	;
	1106	4375	221.064793	73.688264	0.271414	0.000000	20.000000	0.000000	0.000000	0.000000	;
	3093	2106	1009.333637	252.333409	0.099075	0.000000	25.000000	0.000000	0.000000	0.000000	;
	220	426	39.865195	19.932598	0.380583	0.000000	7.586000	0.000000	0.000000	0.000000	;
	828	681	153.746870	76.873435	0.325210	0.000000	25.000000	0.000000	0.000000	0.000000	;
	2860	2355	450.424494	225.212247	0.224300	0.000000	50.515000	0.000000	0.000000	0.000000	;
	1612	1189	173.574789	86.787395	0.232962	0.000000	20.218143	0.000000	0.000000	0.000000	;
	4095	3614	75.144039	18.786010	1.132066	0.000000	21.267000	0.000000	0.000000	0.000000	;
	3714	1137	551.144233	90.768927	0.275425	0.000000	25.000000	0.000000	0.000000	0.000000	;
	993	991	165.597657	82.798828	0.301937	0.000000	25.000000	0.000000	0.000000	0.000000	;
	4236	725	29.614377	14.807189	1.013021	0.000000	15.000000	0.000000	0.000000	0.000000	;
	4227	3958	205.763751	108.751425	0.137929	0.000000	15.000000	0.000000	0.000000	0.000000	;
	1167	3289	178.607940	89.303970	0.240068	0.000000	21.439000	0.000000	0.000000	0.000000	;
	3421	3071	433.997433	80.401961	0.310938	0.000000	25.000000	0.000000	0.000000	0.000000	;
	4021	4023	166.656548	83.328274	0.180011	0.000000	15.000000	0.000000	0.000000	0.000000	;
	2550	2547	447.928705	223.964352	0.089300	0.000000	20.000000	0.000000	0.000000	0.000000	;
	1302	2116	243.668057	81.222686	0.246237	0.000000	20.000000	0.000000	0.000000	0.000000	;
	423	421	357.328569	178.664285	0.083956	0.000000	15.000000	0.000000	0.000000	0.000000	;
	1822	1823	455.880282	227.940141	0.065807	0.000000	15.000000	0.000000	0.000000	0.000000	;
	526	1326	116.219742	82.650995	0.302477	0.000000	25.000000	0.000000	0.000000	0.000000	;
	3959	2412	292.707574	146.353787	0.102491	0.000000	15.000000	0.000000	0.000000	0.000000	;
	4427	3951	235.152746	78.384249	0.318942	0.000000	25.000000	0.000000	0.000000	0.000000	;
	2640	1683	319.747443	79.936861	0.229969	0.000000	18.383000	0.000000	0.000000	0.000000	;
	4421	4349	337.588047	84.397012	0.265138	0.000000	22.376875	0.000000	0.000000	0.000000	;
	3345	4548	174.082074	87.041037	0.153663	0.000000	13.375000	0.000000	0.000000	0.000000	;
	2794	2792	309.758249	154.879124	0.096850	0.000000	15.000000	0.000000	0.000000	0.000000	;
	243	262	100.071839	25.017960	0.999282	0.000000	25.000000	0.000000	0.000000	0.000000	;
	1687	3164	319.264211	79.816053	0.278606	0.000000	22.237235	0.000000	0.000000	0.000000	;
	3980	969	168.630036	84.315018	0.296507	0.000000	25.000000	0.000000	0.000000	0.000000	;
	2355	4169	132.723406	1048.410608	0.047691	0.000000	50.000000	0.000000	0.000000	0.000000	;
	3255	4533	159.648618	79.824309	0.186463	0.000000	14.884286	0.000000	0.000000	0.000000	;
	4173	4456	996.239258	332.079753	0.066221	0.000000	21.990643	0.000000	0.000000	0.000000	;
	2458	7	278.475642	139.237821	0.107729	0.000000	15.000000	0.000000	0.000000	0.000000	;
	2329	1461	235.781086	78.593695	0.318092	0.000000	25.000000	0.000000	0.000000	0.000000	;
	3438	1640	50.227723	25.113861	0.995466	0.000000	25.000000	0.000000	0.000000	0.000000	;
	3778	2801	244.198964	87.095190	0.103335	0.000000	9.000000	0.000000	0.000000	0.000000	;
	3967	2183	184.278257	61.426086	0.271383	0.000000	16.670000	0.000000	0.000000	0.000000	;
	3059	3569	47.684028	79.508302	0.188660	0.000000	15.000000	0.000000	0.000000	0.000000	;
	3072	658	190.576064	95.288032	0.157417	0.000000	15.000000	0.000000	0.000000	0.000000	;
	3294	3743	236.184794	78.728265	0.190529	0.000000	15.000000	0.000000	0.000000	0.000000	;
	4149	3952	370.541395	185.270698	0.080963	0.000000	15.000000	0.000000	0.000000	0.000000	;
	3981	361	873.351513	218.337878	0.068701	0.000000	15.000000	0.000000	0.000000	0.000000	;
	871	1795	158.537965	79.268982	0.315382	0.000000	25.000000	0.000000	0.000000	0.000000	;
	488	3896	261.642430	83.958614	0.297766	0.000000	25.000000	0.000000	0.000000	0.000000	;
	4538	820	339.725140	169.862570	0.147178	0.000000	25.000000	0.000000	0.000000	0.000000	;
	1259	3621	62.181589	31.090794	0.248080	0.000000	7.713000	0.000000	0.000000	0.000000	;
	4468	1558	148.828724	78.755429	0.342834	0.000000	27.000000	0.000000	0.000000	0.000000	;
	792	2832	340.062037	85.015509	0.294064	0.000000	25.000000	0.000000	0.000000	0.000000	;
	4313	4311	164.981448	82.490724	0.058188	0.000000	4.800000	0.000000	0.000000	0.000000	;
	1717	132	430.703535	215.351767	0.041551	0.000000	8.948000	0.000000	0.000000	0.000000	;
	2669	1672	163.504283	81.752141	0.305802	0.000000	25.000000	0.000000	0.000000	0.000000	;
	83	1261	427.056645	218.068442	0.068786	0.000000	15.000000	0.000000	0.000000	0.000000	;
	445	3054	283.623840	141.811920	0.176290	0.000000	25.000000	0.000000	0.000000	0.000000	;
	2872	3286	61.282950	30.641475	0.655386	0.000000	20.082000	0.000000	0.000000	0.000000	;
	29	2287	9.510616	4.755308	3.154370	0.000000	15.000000	0.000000	0.000000	0.000000	;
	1731	1732	236.413997	78.804666	0.116947	0.000000	9.216000	0.000000	0.000000	0.000000	;
	2986	3550	28.490754	14.245377	1.052973	0.000000	15.000000	0.000000	0.000000	0.000000	;
	3759	3842	237.839016	118.919508	0.126136	0.000000	15.000000	0.000000	0.000000	0.000000	;
	3318	3542	172.039885	86.019942	0.192339	0.000000	16.545000	0.000000	0.000000	0.000000	;
	3190	1457	253.302540	126.651270	0.118435	0.000000	15.000000	0.000000	0.000000	0.000000	;
	15	1781	65.274056	32.637028	0.766001	0.000000	25.000000	0.000000	0.000000	0.000000	;
	2208	4018	340.980317	170.490158	0.087982	0.000000	15.000000	0.000000	0.000000	0.000000	;
	875	1814	241.295989	80.431996	0.212635	0.000000	17.102667	0.000000	0.000000	0.000000	;
	1202	2845	328.243948	164.121974	0.152326	0.000000	25.000000	0.000000	0.000000	0.000000	;
	4339	3850	333.275566	166.637783	0.150026	0.000000	25.000000	0.000000	0.000000	0.000000	;
	3186	3092	564.072010	141.018002	0.177282	0.000000	25.000000	0.000000	0.000000	0.000000	;
	1578	1576	371.370131	92.842533	0.206263	0.000000	19.150000	0.000000	0.000000	0.000000	;
	3437	4460	307.727572	153.863786	0.162481	0.000000	25.000000	0.000000	0.000000	0.000000	;
	476	478	255.979280	85.326427	0.292992	0.000000	25.000000	0.000000	0.000000	0.000000	;
	1580	4057	236.614733	78.871578	0.190183	0.000000	15.000000	0.000000	0.000000	0.000000	;
	404	4202	161.463293	80.731646	0.180683	0.000000	14.586818	0.000000	0.000000	0.000000	;
	1705	1707	55.956450	27.978225	0.714842	0.000000	20.000000	0.000000	0.000000	0.000000	;
	194	2403	152.624054	76.312027	0.225213	0.000000	17.186444	0.000000	0.000000	0.000000	;
	2475	2318	242.722814	80.907605	0.308994	0.000000	25.000000	0.000000	0.000000	0.000000	;
	4566	2662	257.226963	380.984628	0.065619	0.000000	25.000000	0.000000	0.000000	0.000000	;
	385	3722	252.544987	84.181662	0.225556	0.000000	18.987667	0.000000	0.000000	0.000000	;
	1564	2682	261.110479	130.555239	0.114894	0.000000	15.000000	0.000000	0.000000	0.000000	;
	796	952	182.717653	91.358827	0.273646	0.000000	25.000000	0.000000	0.000000	0.000000	;
	3702	3778	56.252521	80.152409	0.374287	0.000000	30.000000	0.000000	0.000000	0.000000	;
	2506	836	363.476896	181.738448	0.082536	0.000000	15.000000	0.000000	0.000000	0.000000	;
	2882	3039	17.399880	8.699940	1.444654	0.000000	12.568400	0.000000	0.000000	0.000000	;
	3911	4152	239.544614	79.848205	0.314938	0.000000	25.147200	0.000000	0.000000	0.000000	;
	4005	1197	317.219157	79.304789	0.118176	0.000000	9.371929	0.000000	0.000000	0.000000	;
	1934	251	298.821001	87.547555	0.114224	0.000000	10.000000	0.000000	0.000000	0.000000	;
	86	2795	314.586193	229.645829	0.065318	0.000000	15.000000	0.000000	0.000000	0.000000	;
	3977	3856	425.896466	315.765116	0.047504	0.000000	15.000000	0.000000	0.000000	0.000000	;
	2158	3962	542.240473	228.735183	0.109297	0.000000	25.000000	0.000000	0.000000	0.000000	;
	2994	4392	342.707179	85.676795	0.199074	0.000000	17.056000	0.000000	0.000000	0.000000	;
	2168	4042	111.629879	27.907470	0.553723	0.000000	15.453000	0.000000	0.000000	0.000000	;
	1746	4214	75.399535	415.545347	0.072194	0.000000	30.000000	0.000000	0.000000	0.000000	;
	1865	1807	556.555506	278.277753	0.089838	0.000000	25.000000	0.000000	0.000000	0.000000	;
	4338	655	283.973698	73.853544	0.203105	0.000000	15.000000	0.000000	0.000000	0.000000	;
	1810	2296	256.211492	85.403831	0.191806	0.000000	16.381000	0.000000	0.000000	0.000000	;
	4123	1389	279.484301	139.742150	0.107341	0.000000	15.000000	0.000000	0.000000	0.000000	;
	3656	3009	340.074421	76.261998	0.104902	0.000000	8.000000	0.000000	0.000000	0.000000	;
	1675	4111	153.718964	76.859482	0.325269	0.000000	25.000000	0.000000	0.000000	0.000000	;
	3972	3572	990.543180	330.181060	0.045430	0.000000	15.000000	0.000000	0.000000	0.000000	;
	1083	483	59.235450	29.617725	0.844089	0.000000	25.000000	0.000000	0.000000	0.000000	;
	4381	2278	390.188875	783.179339	0.043413	0.000000	34.000000	0.000000	0.000000	0.000000	;
	606	3040	281.560246	140.780123	0.106549	0.000000	15.000000	0.000000	0.000000	0.000000	;
	1091	1088	240.135646	80.045215	0.312323	0.000000	25.000000	0.000000	0.000000	0.000000	;
	921	2031	189.853212	94.926606	0.158017	0.000000	15.000000	0.000000	0.000000	0.000000	;
	2346	1589	16.513308	8.256654	1.816717	0.000000	15.000000	0.000000	0.000000	0.000000	;
	4235	1633	551.144233	137.786058	0.181441	0.000000	25.000000	0.000000	0.000000	0.000000	;
	1876	403	699.350389	233.116796	0.099702	0.000000	23.242167	0.000000	0.000000	0.000000	;
	2235	3810	235.826997	273.208687	0.054903	0.000000	15.000000	0.000000	0.000000	0.000000	;
	3444	3441	687.272473	229.090824	0.109127	0.000000	25.000000	0.000000	0.000000	0.000000	;
	2766	2845	152.057996	76.028998	0.328822	0.000000	25.000000	0.000000	0.000000	0.000000	;
	2744	2745	285.936696	142.968348	0.065877	0.000000	9.418375	0.000000	0.000000	0.000000	;
	1087	649	325.636891	81.409223	0.227508	0.000000	18.521235	0.000000	0.000000	0.000000	;
	2248	4395	496.463707	248.231853	0.032470	0.000000	8.060000	0.000000	0.000000	0.000000	;
	1045	2473	277.566202	92.522067	0.270206	0.000000	25.000000	0.000000	0.000000	0.000000	;
	1227	3130	316.138009	79.034502	0.239781	0.000000	18.951000	0.000000	0.000000	0.000000	;
	3433	1387	117.146654	58.573327	0.256089	0.000000	15.000000	0.000000	0.000000	0.000000	;
	1402	4484	263.998667	87.999556	0.222395	0.000000	19.570692	0.000000	0.000000	0.000000	;
	3624	3622	246.888060	82.296020	0.182269	0.000000	15.000000	0.000000	0.000000	0.000000	;
	775	244	62.053142	20.684381	1.208641	0.000000	25.000000	0.000000	0.000000	0.000000	;
	4097	763	95.776173	23.944043	0.421928	0.000000	10.102667	0.000000	0.000000	0.000000	;
	3191	1770	152.799337	76.399669	0.327227	0.000000	25.000000	0.000000	0.000000	0.000000	;
	1785	2061	311.520751	155.760376	0.096302	0.000000	15.000000	0.000000	0.000000	0.000000	;
	1995	3314	237.208535	79.069512	0.316177	0.000000	25.000000	0.000000	0.000000	0.000000	;
	1685	1682	285.543571	142.771785	0.105063	0.000000	15.000000	0.000000	0.000000	0.000000	;
	3910	2575	194.508314	97.254157	0.142153	0.000000	13.825000	0.000000	0.000000	0.000000	;
	1251	3138	355.564816	88.891204	0.281243	0.000000	25.000000	0.000000	0.000000	0.000000	;
	1912	2440	187.216331	93.608165	0.180166	0.000000	16.865000	0.000000	0.000000	0.000000	;
	4450	2046	682.444593	170.611148	0.116569	0.000000	19.888000	0.000000	0.000000	0.000000	;
	1668	4325	558.065465	139.516366	0.179190	0.000000	25.000000	0.000000	0.000000	0.000000	;
	3471	1362	36.623700	18.311850	0.819142	0.000000	15.000000	0.000000	0.000000	0.000000	;
	2069	3115	238.990554	79.663518	0.172783	0.000000	13.764500	0.000000	0.000000	0.000000	;
	1198	2735	170.849914	85.424957	0.100732	0.000000	8.605000	0.000000	0.000000	0.000000	;
	3093	3096	267.978494	133.989247	0.186582	0.000000	25.000000	0.000000	0.000000	0.000000	;
	3878	3399	166.503000	83.251500	0.193654	0.000000	16.122000	0.000000	0.000000	0.000000	;
	2439	2474	312.629801	156.314901	0.095960	0.000000	15.000000	0.000000	0.000000	0.000000	;
	3757	651	218.971455	134.141611	0.111822	0.000000	15.000000	0.000000	0.000000	0.000000	;
	2440	3116	77.685728	38.842864	0.417406	0.000000	16.213250	0.000000	0.000000	0.000000	;
	3748	3160	166.821463	83.410732	0.232390	0.000000	19.383800	0.000000	0.000000	0.000000	;
	913	2143	174.989193	58.329731	0.428598	0.000000	25.000000	0.000000	0.000000	0.000000	;
	2314	4404	429.704698	79.600493	0.314068	0.000000	25.000000	0.000000	0.000000	0.000000	;
	1047	1036	483.986539	161.328846	0.154963	0.000000	25.000000	0.000000	0.000000	0.000000	;
	3356	1674	246.122364	123.061182	0.091572	0.000000	11.269000	0.000000	0.000000	0.000000	;
	475	3522	275.769757	88.871249	0.281306	0.000000	25.000000	0.000000	0.000000	0.000000	;
	1492	1489	456.495680	114.123920	0.153283	0.000000	17.493300	0.000000	0.000000	0.000000	;
	959	956	170.110628	85.055314	0.293926	0.000000	25.000000	0.000000	0.000000	0.000000	;
	362	2536	275.784146	137.892073	0.108781	0.000000	15.000000	0.000000	0.000000	0.000000	;
	2710	1572	193.305325	96.652663	0.155195	0.000000	15.000000	0.000000	0.000000	0.000000	;
	625	10	320.604778	80.151195	0.145987	0.000000	11.701000	0.000000	0.000000	0.000000	;
	787	775	293.016476	97.672159	0.255958	0.000000	25.000000	0.000000	0.000000	0.000000	;
	3749	3751	246.344770	82.114923	0.274158	0.000000	22.512500	0.000000	0.000000	0.000000	;
	2729	4343	66.426587	33.213294	0.451626	0.000000	15.000000	0.000000	0.000000	0.000000	;
	4402	2479	45.049839	15.016613	1.664823	0.000000	25.000000	0.000000	0.000000	0.000000	;
	2431	3510	61.747981	30.873991	0.809743	0.000000	25.000000	0.000000	0.000000	0.000000	;
	358	1420	551.727357	183.909119	0.081562	0.000000	15.000000	0.000000	0.000000	0.000000	;
	1502	1453	213.954270	106.977135	0.140217	0.000000	15.000000	0.000000	0.000000	0.000000	;
	1834	2378	245.107725	122.553862	0.122395	0.000000	15.000000	0.000000	0.000000	0.000000	;
	226	3937	244.913126	122.456563	0.204154	0.000000	25.000000	0.000000	0.000000	0.000000	;
	1547	599	280.756545	140.378273	0.106854	0.000000	15.000000	0.000000	0.000000	0.000000	;
	55	3349	341.250265	230.769584	0.108333	0.000000	25.000000	0.000000	0.000000	0.000000	;
	1732	601	465.102075	155.034025	0.057645	0.000000	8.937000	0.000000	0.000000	0.000000	;
	3942	3829	198.454931	99.227466	0.251946	0.000000	25.000000	0.000000	0.000000	0.000000	;
	2864	2699	431.942236	215.971118	0.046356	0.000000	10.011556	0.000000	0.000000	0.000000	;
	3910	3912	158.027092	79.013546	0.189841	0.000000	15.000000	0.000000	0.000000	0.000000	;
	1306	3450	264.846943	88.282314	0.226546	0.000000	20.000000	0.000000	0.000000	0.000000	;
	338	334	242.214485	80.738162	0.266974	0.000000	21.555000	0.000000	0.000000	0.000000	;
	1930	2531	543.911330	271.955665	0.055156	0.000000	15.000000	0.000000	0.000000	0.000000	;
	14	3464	348.198110	87.049528	0.172316	0.000000	15.000000	0.000000	0.000000	0.000000	;
	373	376	148.020430	49.340143	0.318392	0.000000	15.709500	0.000000	0.000000	0.000000	;
	896	970	235.401492	78.467164	0.224374	0.000000	17.606000	0.000000	0.000000	0.000000	;
	2631	1268	257.089217	128.544608	0.101493	0.000000	13.046333	0.000000	0.000000	0.000000	;
	385	4568	257.665186	85.888395	0.221074	0.000000	18.987667	0.000000	0.000000	0.000000	;
	3515	417	226.996514	75.665505	0.264321	0.000000	20.000000	0.000000	0.000000	0.000000	;
	3982	4056	432.033368	216.016684	0.069439	0.000000	15.000000	0.000000	0.000000	0.000000	;
	765	4458	214.494334	107.247167	0.233106	0.000000	25.000000	0.000000	0.000000	0.000000	;
	3680	4548	125.510745	41.836915	0.667186	0.000000	27.913000	0.000000	0.000000	0.000000	;
	431	2913	342.455777	214.634454	0.116477	0.000000	25.000000	0.000000	0.000000	0.000000	;
	616	958	107.399544	35.799848	0.440197	0.000000	15.759000	0.000000	0.000000	0.000000	;
	4371	41	296.027946	74.006986	0.337806	0.000000	25.000000	0.000000	0.000000	0.000000	;
	605	1794	470.988911	235.494455	0.063696	0.000000	15.000000	0.000000	0.000000	0.000000	;
	1124	1122	226.804152	75.601384	0.330682	0.000000	25.000000	0.000000	0.000000	0.000000	;
	539	3516	196.718276	64.156186	0.389674	0.000000	25.000000	0.000000	0.000000	0.000000	;
	3666	349	238.552434	79.517478	0.202320	0.000000	16.088000	0.000000	0.000000	0.000000	;
	2908	2961	251.165084	83.721695	0.298608	0.000000	25.000000	0.000000	0.000000	0.000000	;
	4212	2627	660.775841	165.193960	0.151337	0.000000	25.000000	0.000000	0.000000	0.000000	;
	4503	4498	146.066114	73.033057	0.273849	0.000000	20.000000	0.000000	0.000000	0.000000	;
	2096	1185	307.595897	76.898974	0.325102	0.000000	25.000000	0.000000	0.000000	0.000000	;
	2523	4145	220.358860	55.089715	0.453805	0.000000	25.000000	0.000000	0.000000	0.000000	;
	3150	2709	246.563675	123.281838	0.324460	0.000000	40.000000	0.000000	0.000000	0.000000	;
	1185	1191	90.092599	22.523150	1.109969	0.000000	25.000000	0.000000	0.000000	0.000000	;
	2320	3609	96.519179	48.259589	0.310819	0.000000	15.000000	0.000000	0.000000	0.000000	;
	1906	1387	260.650682	130.325341	0.191828	0.000000	25.000000	0.000000	0.000000	0.000000	;
	1351	4174	470.610550	235.305275	0.063747	0.000000	15.000000	0.000000	0.000000	0.000000	;
	612	1256	281.699135	58.024882	0.568722	0.000000	33.000000	0.000000	0.000000	0.000000	;
	4114	1838	406.999800	135.666600	0.161082	0.000000	21.853500	0.000000	0.000000	0.000000	;
	4213	1224	334.118961	83.529740	0.299295	0.000000	25.000000	0.000000	0.000000	0.000000	;
	3137	911	310.050258	155.025129	0.096759	0.000000	15.000000	0.000000	0.000000	0.000000	;
	1934	2906	150.973607	75.486803	0.331184	0.000000	25.000000	0.000000	0.000000	0.000000	;
	850	904	247.744155	82.581385	0.227761	0.000000	18.808786	0.000000	0.000000	0.000000	;
	3956	2476	259.261013	129.630506	0.192856	0.000000	25.000000	0.000000	0.000000	0.000000	;
	3447	2859	232.853572	77.617857	0.257673	0.000000	20.000000	0.000000	0.000000	0.000000	;
	4014	2747	423.229439	141.076480	0.100144	0.000000	14.128000	0.000000	0.000000	0.000000	;
	3237	1721	89.262734	22.315683	1.120288	0.000000	25.000000	0.000000	0.000000	0.000000	;
	2924	3812	150.957552	75.478776	0.331219	0.000000	25.000000	0.000000	0.000000	0.000000	;
	3996	238	381.860050	127.286683	0.196407	0.000000	25.000000	0.000000	0.000000	0.000000	;
	3740	1514	287.541834	143.770917	0.104333	0.000000	15.000000	0.000000	0.000000	0.000000	;
	1383	3196	415.147847	138.382616	0.180659	0.000000	25.000000	0.000000	0.000000	0.000000	;
	2380	1930	260.569557	130.284779	0.115132	0.000000	15.000000	0.000000	0.000000	0.000000	;
	2167	505	224.292508	74.764169	0.334385	0.000000	25.000000	0.000000	0.000000	0.000000	;
	1534	2732	458.629407	47.406142	0.527358	0.000000	25.000000	0.000000	0.000000	0.000000	;
	2638	2641	238.923797	79.641266	0.215840	0.000000	17.189750	0.000000	0.000000	0.000000	;
	2581	3418	206.250498	68.750166	0.363635	0.000000	25.000000	0.000000	0.000000	0.000000	;
	2728	994	162.943008	81.471504	0.184113	0.000000	15.000000	0.000000	0.000000	0.000000	;
	2913	314	78.619147	39.309574	0.635977	0.000000	25.000000	0.000000	0.000000	0.000000	;
	3501	1413	36.614165	18.307082	0.819355	0.000000	15.000000	0.000000	0.000000	0.000000	;
	114	113	116.920054	58.460027	0.256586	0.000000	15.000000	0.000000	0.000000	0.000000	;
	2363	3629	90.423041	45.211520	0.331774	0.000000	15.000000	0.000000	0.000000	0.000000	;
	1910	3827	182.794618	60.931539	0.410297	0.000000	25.000000	0.000000	0.000000	0.000000	;
	111	2059	322.007327	80.501832	0.310552	0.000000	25.000000	0.000000	0.000000	0.000000	;
	1300	47	432.060258	81.140815	0.308106	0.000000	25.000000	0.000000	0.000000	0.000000	;
	3336	368	107.596989	26.899247	0.557636	0.000000	15.000000	0.000000	0.000000	0.000000	;
	1819	1821	308.675652	154.337826	0.059467	0.000000	9.178000	0.000000	0.000000	0.000000	;
	1236	2009	1096.608481	274.152120	0.091190	0.000000	25.000000	0.000000	0.000000	0.000000	;
	2963	2739	46.817705	23.408852	0.427682	0.000000	10.011556	0.000000	0.000000	0.000000	;
	2740	760	76.736598	38.368299	0.512724	0.000000	19.672333	0.000000	0.000000	0.000000	;
	609	1487	315.239160	78.809790	0.317219	0.000000	25.000000	0.000000	0.000000	0.000000	;
	791	533	165.829782	82.914891	0.301514	0.000000	25.000000	0.000000	0.000000	0.000000	;
	538	1169	555.134983	277.567491	0.090068	0.000000	25.000000	0.000000	0.000000	0.000000	;
	3756	887	238.474686	79.491562	0.230892	0.000000	18.354000	0.000000	0.000000	0.000000	;
	4340	1667	302.058229	114.132984	0.131426	0.000000	15.000000	0.000000	0.000000	0.000000	;
	336	3088	30.687502	15.343751	1.629328	0.000000	25.000000	0.000000	0.000000	0.000000	;
	3327	2002	132.496502	66.248251	0.226421	0.000000	15.000000	0.000000	0.000000	0.000000	;
	2085	3399	153.842626	76.921313	0.205652	0.000000	15.819000	0.000000	0.000000	0.000000	;
	4117	3752	237.261398	79.087133	0.284654	0.000000	22.512500	0.000000	0.000000	0.000000	;
	1524	1926	320.027420	265.389349	0.094201	0.000000	25.000000	0.000000	0.000000	0.000000	;
	4540	1805	50.131572	16.710524	0.897638	0.000000	15.000000	0.000000	0.000000	0.000000	;
	579	581	371.762703	81.389472	0.307165	0.000000	25.000000	0.000000	0.000000	0.000000	;
	2312	4184	125.857174	62.928587	0.397276	0.000000	25.000000	0.000000	0.000000	0.000000	;
	1390	383	420.754879	210.377439	0.118834	0.000000	25.000000	0.000000	0.000000	0.000000	;
	3287	3709	48.367107	12.091777	1.291208	0.000000	15.613000	0.000000	0.000000	0.000000	;
	888	975	360.699157	180.349578	0.080921	0.000000	14.594000	0.000000	0.000000	0.000000	;
	1632	1958	352.249704	408.036284	0.031860	0.000000	13.000000	0.000000	0.000000	0.000000	;
	3663	1990	227.871397	113.935698	0.131653	0.000000	15.000000	0.000000	0.000000	0.000000	;
	2782	3199	52.641504	26.320752	0.569893	0.000000	15.000000	0.000000	0.000000	0.000000	;
	1877	2444	242.044470	80.681490	0.176813	0.000000	14.265500	0.000000	0.000000	0.000000	;
	2242	2244	257.670381	85.890127	0.225655	0.000000	19.381500	0.000000	0.000000	0.000000	;
	1740	96	1682.233285	560.744428	0.046677	0.000000	26.174000	0.000000	0.000000	0.000000	;
	1722	4087	114.615339	28.653835	0.352576	0.000000	10.102667	0.000000	0.000000	0.000000	;
	1502	119	538.057179	134.514295	0.130048	0.000000	17.493300	0.000000	0.000000	0.000000	;
	1453	2821	315.066257	157.533129	0.095218	0.000000	15.000000	0.000000	0.000000	0.000000	;
	1307	103	18.389069	9.194535	3.806609	0.000000	35.000000	0.000000	0.000000	0.000000	;
	478	479	94.248940	31.416313	0.795765	0.000000	25.000000	0.000000	0.000000	0.000000	;
	1223	907	304.565212	78.727300	0.279446	0.000000	22.000000	0.000000	0.000000	0.000000	;
	755	4183	143.311882	71.655941	0.348889	0.000000	25.000000	0.000000	0.000000	0.000000	;
	3312	2765	233.388154	85.022636	0.211708	0.000000	18.000000	0.000000	0.000000	0.000000	;
	3556	416	28.728911	14.364456	1.044244	0.000000	15.000000	0.000000	0.000000	0.000000	;
	2684	715	313.817425	78.454356	0.318657	0.000000	25.000000	0.000000	0.000000	0.000000	;
	3683	3716	729.411720	243.137240	0.119048	0.000000	28.945000	0.000000	0.000000	0.000000	;
	1903	1086	511.917265	170.639088	0.118419	0.000000	20.206909	0.000000	0.000000	0.000000	;
	3938	3476	312.486143	78.121536	0.198473	0.000000	15.505000	0.000000	0.000000	0.000000	;
	4252	1844	30.553284	15.276642	0.981891	0.000000	15.000000	0.000000	0.000000	0.000000	;
	1034	3319	393.843228	131.281076	0.102592	0.000000	13.468429	0.000000	0.000000	0.000000	;
	2231	3463	816.231522	272.077174	0.028845	0.000000	7.848000	0.000000	0.000000	0.000000	;
	2983	1940	288.755741	144.377871	0.103894	0.000000	15.000000	0.000000	0.000000	0.000000	;
	2445	2860	513.368114	94.334006	0.583035	0.000000	55.000000	0.000000	0.000000	0.000000	;
	4357	607	238.854528	79.618176	0.224916	0.000000	17.907429	0.000000	0.000000	0.000000	;
	133	198	998.791353	188.929523	0.079395	0.000000	15.000000	0.000000	0.000000	0.000000	;
	2826	3333	300.003336	150.001668	0.166665	0.000000	25.000000	0.000000	0.000000	0.000000	;
	3241	1014	167.459752	83.729876	0.298579	0.000000	25.000000	0.000000	0.000000	0.000000	;
	1183	1467	321.047761	80.261940	0.311480	0.000000	25.000000	0.000000	0.000000	0.000000	;
	3880	2168	27.737542	13.868771	1.186262	0.000000	16.452000	0.000000	0.000000	0.000000	;
	4408	3885	59.004079	29.502039	0.508439	0.000000	15.000000	0.000000	0.000000	0.000000	;
	2633	3697	223.833108	74.611036	0.335071	0.000000	25.000000	0.000000	0.000000	0.000000	;
	4559	1998	240.497290	80.165763	0.187112	0.000000	15.000000	0.000000	0.000000	0.000000	;
	7	35	237.904821	79.301607	0.272466	0.000000	21.607000	0.000000	0.000000	0.000000	;
	2208	91	102.654311	51.327155	0.292243	0.000000	15.000000	0.000000	0.000000	0.000000	;