<NUMBER OF ZONES> 8
<TOTAL OD FLOW> 0
<END OF METADATA>


Origin  1  
4	:	421.504492;	20	:	590.871501;	10	:	374.790022;	
17	:	452.430729;	21	:	582.288955;	25	:	208.695863;	
26	:	360.268659;	

Origin  4  
1	:	205.180000;	20	:	325.467651;	10	:	246.716577;	
17	:	520.951879;	21	:	295.468525;	25	:	380.648555;	
26	:	393.657096;	

Origin  20  
1	:	200.163903;	4	:	403.463151;	10	:	539.144015;	
17	:	254.883762;	21	:	444.373117;	25	:	562.559027;	
26	:	551.772474;	

Origin  10  
1	:	472.804892;	4	:	488.601473;	20	:	438.475083;	
17	:	378.748573;	21	:	233.364307;	25	:	487.335972;	
26	:	518.472187;	

Origin  17  
1	:	371.569206;	4	:	290.096621;	20	:	271.430483;	
10	:	472.295308;	21	:	473.512098;	25	:	263.945034;	
26	:	264.122072;	

Origin  21  
1	:	536.952192;	4	:	277.699650;	20	:	250.595531;	
10	:	305.890206;	17	:	335.485630;	25	:	450.204843;	
26	:	298.637618;	

Origin  25  
1	:	445.626604;	4	:	531.574886;	20	:	232.515649;	
10	:	441.791196;	17	:	423.005635;	21	:	454.745246;	
26	:	593.413745;	

Origin  26  
1	:	428.039423;	4	:	588.159490;	20	:	417.401870;	
10	:	224.509751;	17	:	293.297983;	21	:	320.128866;	
25	:	553.381681;	

