<NUMBER OF ZONES> 2
<TOTAL OD FLOW> 400
<END OF METADATA>


Origin  1  
2	:	200.000000;	

Origin  2  
1	:	200.000000;	

