<NUMBER OF ZONES> 10
<TOTAL OD FLOW> 18000
<END OF METADATA>


Origin  6  
13	:	200.000000;	16	:	200.000000;	14	:	200.000000;	
38	:	200.000000;	33	:	200.000000;	29	:	200.000000;	
5	:	200.000000;	24	:	200.000000;	23	:	200.000000;	


Origin  13  
6	:	200.000000;	16	:	200.000000;	14	:	200.000000;	
38	:	200.000000;	33	:	200.000000;	29	:	200.000000;	
5	:	200.000000;	24	:	200.000000;	23	:	200.000000;	


Origin  16  
6	:	200.000000;	13	:	200.000000;	14	:	200.000000;	
38	:	200.000000;	33	:	200.000000;	29	:	200.000000;	
5	:	200.000000;	24	:	200.000000;	23	:	200.000000;	


Origin  14  
6	:	200.000000;	13	:	200.000000;	16	:	200.000000;	
38	:	200.000000;	33	:	200.000000;	29	:	200.000000;	
5	:	200.000000;	24	:	200.000000;	23	:	200.000000;	


Origin  38  
6	:	200.000000;	13	:	200.000000;	16	:	200.000000;	
14	:	200.000000;	33	:	200.000000;	29	:	200.000000;	
5	:	200.000000;	24	:	200.000000;	23	:	200.000000;	


Origin  33  
6	:	200.000000;	13	:	200.000000;	16	:	200.000000;	
14	:	200.000000;	38	:	200.000000;	29	:	200.000000;	
5	:	200.000000;	24	:	200.000000;	23	:	200.000000;	


Origin  29  
6	:	200.000000;	13	:	200.000000;	16	:	200.000000;	
14	:	200.000000;	38	:	200.000000;	33	:	200.000000;	
5	:	200.000000;	24	:	200.000000;	23	:	200.000000;	


Origin  5  
6	:	200.000000;	13	:	200.000000;	16	:	200.000000;	
14	:	200.000000;	38	:	200.000000;	33	:	200.000000;	
29	:	200.000000;	24	:	200.000000;	23	:	200.000000;	


Origin  24  
6	:	200.000000;	13	:	200.000000;	16	:	200.000000;	
14	:	200.000000;	38	:	200.000000;	33	:	200.000000;	
29	:	200.000000;	5	:	200.000000;	23	:	200.000000;	


Origin  23  
6	:	200.000000;	13	:	200.000000;	16	:	200.000000;	
14	:	200.000000;	38	:	200.000000;	33	:	200.000000;	
29	:	200.000000;	5	:	200.000000;	24	:	200.000000;	


