<NUMBER OF ZONES> 2
<TOTAL OD FLOW> 4880.0
<END OF METADATA>
Origin 1
1	 : 	0;
2	 : 	880.0;
Origin 2
1	 : 	4000.0;
2	 : 	0;
